19
Iteration:   112charge 0 multiplicity 1
 C        -0.006650        -0.307292        -0.007443
 C         1.467434         0.134531         0.086766
 C         1.942712         0.646259         1.466726
 C         3.473216         0.449096         1.253658
 C         4.019030         0.638474        -0.225689
 C         3.235138         1.453345        -1.264695
 O         1.817999         1.023851        -1.080915
 C         3.456130        -0.697405         0.283620
 O         2.210140        -1.173896        -0.127409
 H        -0.274294        -1.005056         0.857268
 H        -0.745197         0.456931        -0.167386
 H        -0.094092        -0.839502        -0.957057
 H         1.569441         1.608086         1.591109
 H         1.804734        -0.135745         2.300361
 H         3.978752         0.401762         2.275825
 H         5.150840         0.552034        -0.223650
 H         3.277171         2.562509        -1.130012
 H         3.524279         1.186253        -2.295080
 H         4.119562        -1.561138         0.511330
