19
Iteration:  2697charge 0 multiplicity 1
 C         0.016448        -0.326352        -0.022401
 C         1.461671         0.111144         0.003458
 C         1.999405         0.717544         1.298946
 C         3.478454         0.407739         1.244875
 C         4.006152         0.553300        -0.099320
 C         3.117013         1.430608        -1.024805
 O         1.799612         1.029280        -1.036883
 C         3.495250        -0.829713         0.280429
 O         2.249210        -1.091277        -0.239229
 H        -0.323387        -1.143785         0.707069
 H        -0.504461         0.608629         0.209778
 H        -0.163166        -0.604827        -1.043658
 H         1.752825         1.863349         1.218141
 H         1.336942         0.485456         2.190568
 H         4.032485         0.481140         2.159176
 H         5.068901         0.744393        -0.229915
 H         3.301465         2.515488        -0.623039
 H         3.451637         1.575916        -2.094212
 H         4.179971        -1.685577         0.293366
