19
Iteration:  1669
 C        -0.037766        -0.203702         0.051666
 C         1.487981         0.059165         0.111882
 C         2.032968         0.780117         1.341846
 C         3.494620         0.370645         1.288128
 C         4.010175         0.631925        -0.200176
 C         3.070591         1.509571        -1.031486
 O         1.786199         0.856627        -1.193778
 C         3.541805        -0.803316         0.235604
 O         2.251100        -1.160762        -0.194679
 H        -0.417983        -0.725105         0.921206
 H        -0.591099         0.800313        -0.190157
 H        -0.186255        -0.851676        -0.890074
 H         1.680129         1.709018         0.999442
 H         1.587249         0.550722         2.334722
 H         4.059556         0.461985         2.284908
 H         5.082324         0.834797        -0.246657
 H         2.928204         2.507331        -0.492670
 H         3.597587         1.680593        -1.936571
 H         4.266818        -1.622371         0.400767
