19
Iteration:  4397
 C         0.044977        -0.139691        -0.134182
 C         1.499000         0.027098         0.032646
 C         1.953130         0.470586         1.425168
 C         3.363975         0.470705         1.250650
 C         4.000882         0.651347        -0.203163
 C         3.158202         1.320704        -1.192255
 O         1.745058         1.108870        -0.875663
 C         3.541256        -0.735376         0.307530
 O         2.332126        -1.123882        -0.223508
 H        -0.517811        -0.562213         0.683762
 H        -0.512927         0.841561        -0.227781
 H        -0.060321        -0.724135        -1.079145
 H         1.446920         1.403940         1.553917
 H         1.702754        -0.287944         2.216984
 H         3.972510         0.626612         2.078709
 H         5.020643         1.009220        -0.072464
 H         3.162261         2.415467        -1.116647
 H         3.442045         0.932927        -2.201499
 H         4.181489        -1.574236         0.463888
