19
Iteration:  2948charge 0 multiplicity 1
 C         0.029503        -0.358962        -0.125463
 C         1.481017         0.163199         0.040020
 C         1.941254         0.570427         1.450517
 C         3.405206         0.367872         1.307390
 C         3.998982         0.648306        -0.137726
 C         3.151052         1.164251        -1.268889
 O         1.789027         1.247802        -0.904181
 C         3.559994        -0.741060         0.288404
 O         2.290454        -0.982454        -0.265338
 H         0.018535        -1.193415         0.547663
 H        -0.513615         0.426840         0.471157
 H        -0.279907        -0.512131        -1.227770
 H         1.477937         1.640590         1.560077
 H         1.385215        -0.079174         2.192288
 H         3.988726         0.463724         2.231808
 H         5.040267         0.951285        -0.111271
 H         3.487114         2.258928        -1.395713
 H         3.202116         0.427078        -2.138900
 H         3.928161        -1.757778         0.478467
