19
Iteration:  3356
 C         0.016755        -0.265124        -0.109267
 C         1.473645         0.138271         0.140524
 C         1.867344         0.530985         1.518143
 C         3.411379         0.307760         1.337851
 C         3.993219         0.668433        -0.110755
 C         3.180413         1.213016        -1.271931
 O         1.819553         1.148395        -0.926628
 C         3.541908        -0.665570         0.241699
 O         2.276335        -0.967767        -0.337483
 H        -0.359283        -0.854192         0.680469
 H        -0.745106         0.475271        -0.405098
 H         0.102555        -0.982003        -0.964577
 H         1.718270         1.539961         1.789205
 H         1.443022        -0.188581         2.221235
 H         4.218916         0.348488         2.053260
 H         5.162159         1.071258         0.005245
 H         3.416331         2.189051        -1.644585
 H         3.216472         0.522426        -2.157948
 H         4.282016        -1.506247         0.244048
