19
Iteration:   963
 C         0.018934        -0.317036         0.002790
 C         1.453094         0.115648         0.137368
 C         1.916430         0.605992         1.414973
 C         3.380520         0.537525         1.210086
 C         4.091493         0.513391        -0.211531
 C         3.199860         1.233240        -1.307685
 O         1.761638         1.162099        -0.945439
 C         3.554689        -0.711731         0.358601
 O         2.259724        -1.032086        -0.260164
 H        -0.243477        -0.999618         0.785864
 H        -0.564300         0.609963         0.102067
 H        -0.056681        -0.770480        -0.937241
 H         1.435376         1.672390         1.586043
 H         1.676727        -0.109669         2.205899
 H         4.044183         0.327036         2.049881
 H         5.145618         0.668818        -0.042288
 H         3.160225         2.359139        -1.370381
 H         3.420165         0.775258        -2.246911
 H         4.067125        -1.700956         0.447640
