19
Iteration:  3559charge 0 multiplicity 1
 C        -0.048895        -0.203530        -0.205574
 C         1.386980         0.111895         0.040400
 C         1.870863         0.487963         1.372052
 C         3.398065         0.419074         1.260211
 C         4.077726         0.654012        -0.115445
 C         3.187188         1.084413        -1.255973
 O         1.732632         1.224254        -0.771882
 C         3.665827        -0.673827         0.327450
 O         2.352983        -1.069989        -0.255669
 H        -0.409399        -0.707677         0.673414
 H        -0.535108         0.809759        -0.123792
 H        -0.344756        -0.607744        -1.217589
 H         1.615255         1.517338         1.644018
 H         1.336740        -0.146359         2.159659
 H         4.115459         0.578968         2.128177
 H         5.118055         1.049591        -0.145660
 H         3.237041         2.078548        -1.505008
 H         3.355203         0.507378        -2.159292
 H         4.497298        -1.476657         0.462923
