19
Iteration:  3124charge 0 multiplicity 1
 C         0.023852        -0.242419        -0.180444
 C         1.546187         0.143522         0.097241
 C         1.937802         0.513316         1.475530
 C         3.484644         0.373385         1.333357
 C         3.936442         0.698545        -0.130955
 C         3.169385         1.341075        -1.256749
 O         1.737715         1.079801        -0.990843
 C         3.555454        -0.726490         0.280126
 O         2.212841        -1.069260        -0.202982
 H        -0.134029        -1.136011         0.446412
 H        -0.642515         0.558016         0.110045
 H        -0.017946        -0.308291        -1.211985
 H         1.767602         1.521160         1.660916
 H         1.574330        -0.215191         2.203558
 H         4.145985         0.315374         2.254607
 H         4.997955         0.821461        -0.092777
 H         3.240055         2.488686        -1.294201
 H         3.577189         0.827819        -2.093175
 H         4.238591        -1.621173         0.249333
