19
Iteration:  4014charge 0 multiplicity 1
 C        -0.096606        -0.204071        -0.135656
 C         1.443407         0.026044        -0.059749
 C         2.007516         0.585935         1.326695
 C         3.464619         0.334076         1.313868
 C         4.032246         0.609346        -0.095623
 C         3.100612         1.420497        -1.123309
 O         1.757862         1.106038        -0.938025
 C         3.585130        -0.739717         0.314983
 O         2.307764        -1.122706        -0.169357
 H        -0.463030        -0.891771         0.581436
 H        -0.465055         0.856378        -0.146675
 H        -0.286729        -0.657093        -1.210070
 H         1.864466         1.718281         1.302921
 H         1.481691         0.155872         2.177018
 H         4.117031         0.369984         2.182695
 H         4.996806         0.772204        -0.332583
 H         3.252701         2.605729        -1.044008
 H         3.501341         1.138440        -2.154045
 H         4.313766        -1.564158         0.420201
