19
Iteration:  3321charge 0 multiplicity 1
 C        -0.037081        -0.133089        -0.120442
 C         1.430832         0.044027        -0.007676
 C         1.977655         0.557200         1.310874
 C         3.454914         0.406865         1.231231
 C         4.026352         0.667086        -0.142435
 C         3.104759         1.399745        -1.094275
 O         1.743592         1.082198        -0.928800
 C         3.595405        -0.752562         0.337406
 O         2.313552        -1.178222        -0.203516
 H        -0.403710        -0.871303         0.683455
 H        -0.448114         0.872827         0.087955
 H        -0.208060        -0.514123        -1.104775
 H         1.475952         1.478061         1.498519
 H         1.557463        -0.194852         2.025372
 H         4.122666         0.425718         2.088007
 H         5.140536         0.880152        -0.084697
 H         3.320519         2.390590        -1.100986
 H         3.418057         0.966826        -2.079851
 H         4.282697        -1.543144         0.475744
