19
Iteration:  4922
 C         0.073279        -0.295122        -0.071151
 C         1.479848         0.149814         0.040340
 C         2.012870         0.647441         1.417677
 C         3.419541         0.294741         1.268045
 C         3.959010         0.647484        -0.119828
 C         3.153111         1.405328        -1.090303
 O         1.732145         1.095084        -0.976430
 C         3.542683        -0.856378         0.201541
 O         2.251884        -1.040322        -0.249878
 H        -0.268338        -1.121289         0.673123
 H        -0.700280         0.480296        -0.175008
 H        -0.017288        -0.690296        -1.014542
 H         1.916243         1.675392         1.469214
 H         1.424577         0.270495         2.327603
 H         4.098058         0.453494         2.102313
 H         5.121963         0.895961        -0.199036
 H         3.223386         2.400736        -0.839713
 H         3.398506         1.207101        -2.108402
 H         4.179009        -1.739498         0.176559
