19
Iteration:  2927
 C        -0.045558        -0.291968        -0.099104
 C         1.455927         0.042625         0.004421
 C         1.996806         0.723636         1.361642
 C         3.404037         0.372197         1.249620
 C         4.034752         0.598124        -0.152998
 C         3.181341         1.315771        -1.141178
 O         1.707481         1.220308        -0.873276
 C         3.585482        -0.787746         0.350658
 O         2.321166        -1.139348        -0.266617
 H        -0.135684        -1.270073         0.315700
 H        -0.754679         0.463126         0.370640
 H        -0.073042        -0.373360        -1.244303
 H         1.596591         1.809819         1.390484
 H         1.355468         0.225807         2.162967
 H         4.018296         0.631392         2.125046
 H         5.108777         0.551764        -0.151409
 H         3.223230         2.461825        -1.217460
 H         3.381679         0.822125        -2.150359
 H         4.275312        -1.659585         0.312089
