19
Iteration:  3549
 C        -0.054890        -0.215069        -0.200721
 C         1.432372         0.045560         0.045877
 C         1.900034         0.555379         1.415064
 C         3.431193         0.439409         1.225449
 C         4.057493         0.634950        -0.132376
 C         3.158247         1.192663        -1.228134
 O         1.725128         1.197640        -0.802804
 C         3.628151        -0.745270         0.323943
 O         2.358549        -1.058182        -0.264364
 H        -0.668398        -0.728689         0.514770
 H        -0.428630         0.867784        -0.274528
 H        -0.211492        -0.790926        -1.192362
 H         1.618426         1.605754         1.482625
 H         1.666565        -0.133738         2.351442
 H         3.868865         0.695959         2.225213
 H         5.099704         1.087775         0.062031
 H         3.506087         2.126324        -1.350972
 H         3.213344         0.516598        -2.091155
 H         4.175166        -1.737793         0.509054
