19
Iteration:  2899
 C        -0.039098        -0.207254        -0.127129
 C         1.463019         0.088313         0.004046
 C         2.015924         0.674437         1.479091
 C         3.482389         0.359795         1.254653
 C         4.016592         0.654320        -0.166071
 C         3.131653         1.465743        -1.039864
 O         1.798325         0.923931        -1.120690
 C         3.576323        -0.738703         0.250697
 O         2.181338        -1.104886        -0.128691
 H        -0.176453        -1.139969         0.443767
 H        -0.703468         0.580758         0.179509
 H        -0.085948        -0.420338        -1.144237
 H         1.759408         1.667708         1.573981
 H         1.525244         0.026486         2.179017
 H         4.203121         0.268708         2.067092
 H         5.100757         0.731997        -0.195133
 H         2.990778         2.421291        -0.631313
 H         3.543098         1.453777        -2.020864
 H         4.211636        -1.631066         0.218089
