19
Iteration:  3786
 C        -0.060146        -0.153264        -0.229870
 C         1.448475         0.016831         0.023778
 C         1.955458         0.544572         1.422909
 C         3.464901         0.430840         1.318129
 C         4.053768         0.675757        -0.102324
 C         3.102922         1.190030        -1.215315
 O         1.738266         1.155246        -0.877515
 C         3.644264        -0.690259         0.344922
 O         2.301951        -1.076521        -0.262659
 H        -0.457589        -1.053865         0.222488
 H        -0.619024         0.648832         0.266241
 H        -0.374089        -0.292255        -1.321992
 H         1.525926         1.593851         1.694988
 H         1.675250        -0.209589         2.149383
 H         4.108585         0.382502         2.226919
 H         5.132691         0.993570        -0.197277
 H         3.527899         2.135400        -1.341995
 H         3.212462         0.609331        -2.192381
 H         4.117666        -1.608382         0.540561
