19
Iteration:  2814charge 0 multiplicity 1
 C         0.097397        -0.342613        -0.083037
 C         1.484997         0.187337        -0.004697
 C         1.968547         0.614998         1.395694
 C         3.441652         0.355493         1.264036
 C         4.047013         0.626613        -0.069815
 C         3.185925         1.366479        -1.153503
 O         1.688509         1.123661        -1.034992
 C         3.572486        -0.747209         0.228020
 O         2.170369        -1.071390        -0.154895
 H        -0.424663        -0.849157         0.826943
 H        -0.568767         0.518715        -0.229926
 H        -0.071422        -0.988584        -0.903765
 H         1.771630         1.704130         1.635202
 H         1.508607         0.092121         2.206902
 H         4.064932         0.197608         2.134083
 H         5.137455         0.598877        -0.138718
 H         3.376070         2.471178        -1.090522
 H         3.570162         1.026745        -2.175316
 H         4.119562        -1.707481         0.398763
