19
Iteration:  4393charge 0 multiplicity 1
 C         0.033781        -0.153295        -0.136064
 C         1.490729         0.051000         0.064103
 C         1.933471         0.449873         1.403784
 C         3.370051         0.479276         1.225048
 C         4.007178         0.661642        -0.173084
 C         3.147174         1.298997        -1.213191
 O         1.753690         1.114432        -0.871914
 C         3.548920        -0.732180         0.337595
 O         2.314445        -1.107004        -0.246722
 H        -0.472864        -0.658581         0.750893
 H        -0.418247         0.809891        -0.189447
 H        -0.056723        -0.717279        -1.030951
 H         1.310753         1.392716         1.623067
 H         1.773935        -0.326470         2.115071
 H         4.080637         0.715194         2.054319
 H         5.160273         0.976792        -0.003602
 H         3.305841         2.363262        -1.134003
 H         3.459353         0.909719        -2.225122
 H         4.197155        -1.620366         0.388729
