19
Iteration:  2728
 C        -0.043575        -0.292563        -0.085407
 C         1.451956         0.134136         0.086643
 C         1.875196         0.503164         1.487303
 C         3.440608         0.391425         1.307753
 C         4.017297         0.693161        -0.101168
 C         3.223647         1.269574        -1.290146
 O         1.812609         1.149420        -1.074712
 C         3.560000        -0.729213         0.272562
 O         2.252309        -1.040021        -0.148477
 H        -0.316216        -1.367978         0.233172
 H        -0.643339         0.475278         0.409126
 H        -0.254155        -0.087402        -1.093429
 H         1.782725         1.616195         1.727167
 H         1.552992        -0.291728         2.259502
 H         4.151441         0.442959         2.137201
 H         5.080440         0.901992        -0.222916
 H         3.414494         2.272975        -1.441497
 H         3.385324         0.821213        -2.297310
 H         4.311071        -1.536879         0.279579
