19
Iteration:    19
 C         0.022566        -0.380982         0.024764
 C         1.421388         0.137561        -0.009638
 C         1.971382         0.584527         1.472891
 C         3.460002         0.424581         1.303140
 C         4.103223         0.585261        -0.147071
 C         3.231810         1.395472        -1.319238
 O         1.763672         1.103425        -1.203322
 C         3.460560        -0.735049         0.408983
 O         2.197198        -1.005696        -0.121395
 H         0.037883        -1.089230         0.824333
 H        -0.595762         0.473637         0.292373
 H        -0.375457        -0.764753        -0.896711
 H         1.549435         1.657539         1.772443
 H         1.671754        -0.263863         2.075914
 H         4.105303         0.260382         2.149202
 H         5.141793         0.729092        -0.366618
 H         3.339409         2.474457        -1.285690
 H         3.490900         1.048186        -2.381389
 H         4.013688        -1.590324         0.747543
