19
Iteration:  3603
 C        -0.018693        -0.270885        -0.128170
 C         1.473201         0.168827         0.002178
 C         1.890665         0.629223         1.449869
 C         3.446742         0.349370         1.280595
 C         4.031642         0.599511        -0.097558
 C         3.162029         1.265757        -1.175331
 O         1.766371         1.116261        -0.971838
 C         3.589491        -0.734897         0.306848
 O         2.283665        -1.022073        -0.243931
 H        -0.116774        -1.183645         0.416498
 H        -0.864536         0.367429         0.223719
 H        -0.124299        -0.469370        -1.256195
 H         1.558539         1.635275         1.661996
 H         1.422215        -0.030952         2.250609
 H         4.059543         0.476374         2.224262
 H         5.148001         0.842595        -0.230315
 H         3.440212         2.309771        -1.241654
 H         3.405169         0.772251        -2.136110
 H         4.177720        -1.675206         0.426040
