19
Iteration:   341charge 0 multiplicity 1
 C        -0.032351        -0.252712        -0.180362
 C         1.474719         0.111349         0.037701
 C         2.012889         0.719500         1.381792
 C         3.513378         0.381377         1.223372
 C         4.011900         0.651342        -0.185990
 C         3.139689         1.408352        -1.156894
 O         1.779820         0.968325        -1.006154
 C         3.529230        -0.682329         0.315129
 O         2.208148        -1.180262        -0.049900
 H        -0.451886        -1.018884         0.488176
 H        -0.673364         0.564829        -0.072681
 H        -0.213590        -0.529452        -1.182257
 H         1.850323         1.764102         1.644106
 H         1.746992         0.105717         2.290641
 H         4.195794         0.310536         2.078292
 H         5.085522         0.786482        -0.245094
 H         3.120641         2.498099        -1.079960
 H         3.269188         0.995813        -2.198485
 H         4.275131        -1.505452         0.507993
