19
Iteration:  4500
 C        -0.008065        -0.171264        -0.079166
 C         1.450319         0.082750         0.056583
 C         1.983839         0.606519         1.415311
 C         3.432650         0.323154         1.320028
 C         4.001861         0.680681        -0.076501
 C         3.174208         1.455339        -1.074892
 O         1.739634         0.908240        -1.067681
 C         3.613783        -0.711023         0.235339
 O         2.265210        -1.119912        -0.257399
 H        -0.481353        -1.107224         0.381900
 H        -0.505437         0.709287         0.271635
 H        -0.291804        -0.142955        -1.107583
 H         1.848428         1.700797         1.546621
 H         1.391399         0.169596         2.197452
 H         4.100986         0.371276         2.212670
 H         5.069550         0.825045        -0.144657
 H         3.074280         2.551866        -1.101435
 H         3.443348         1.244969        -2.100978
 H         4.297710        -1.512308         0.032380
