19
Iteration:  4902
 C        -0.004900        -0.273702        -0.144000
 C         1.490408         0.129202         0.058474
 C         2.034980         0.685932         1.401275
 C         3.510373         0.264789         1.300705
 C         3.995744         0.664621        -0.115422
 C         3.098364         1.543692        -0.993577
 O         1.794660         0.971413        -1.093886
 C         3.518870        -0.743150         0.126258
 O         2.181005        -1.139932        -0.136496
 H        -0.230449        -1.119571         0.609708
 H        -0.552815         0.652276         0.142715
 H        -0.278849        -0.659160        -1.096121
 H         1.960217         1.783493         1.489488
 H         1.438710         0.109962         2.219633
 H         4.187606         0.129612         2.156188
 H         5.192679         0.629933        -0.398836
 H         3.111653         2.622463        -0.646900
 H         3.456763         1.482314        -2.045057
 H         4.181407        -1.568296         0.196215
