19
Iteration:  2801charge 0 multiplicity 1
 C         0.080760        -0.322298        -0.113997
 C         1.466495         0.162311         0.079827
 C         1.922567         0.639569         1.456951
 C         3.419965         0.353193         1.289454
 C         3.998233         0.612976        -0.139090
 C         3.200328         1.288911        -1.222179
 O         1.779036         1.179266        -0.958304
 C         3.479276        -0.761263         0.218473
 O         2.232732        -1.035818        -0.169449
 H         0.056802        -1.081698         0.688189
 H        -0.749776         0.372329        -0.247890
 H         0.234552        -0.846541        -1.031586
 H         1.550321         1.578469         1.655037
 H         1.550825        -0.131915         2.037775
 H         4.095835         0.349088         2.187510
 H         5.053018         0.867305        -0.210065
 H         3.462938         2.428531        -1.462571
 H         3.327576         0.743840        -2.180212
 H         4.219956        -1.617529         0.327684
