19
Iteration:  2430charge 0 multiplicity 1
 C        -0.073467        -0.259507        -0.153200
 C         1.415684         0.123094         0.068850
 C         2.102740         0.722940         1.347334
 C         3.534677         0.306597         1.300214
 C         4.012915         0.677704        -0.113717
 C         3.100554         1.331000        -1.112815
 O         1.688967         1.045843        -1.034648
 C         3.572668        -0.805011         0.257814
 O         2.275574        -1.089038        -0.143577
 H        -0.507009        -0.428263         0.829562
 H        -0.546628         0.469612        -0.763375
 H        -0.076118        -1.229817        -0.619076
 H         1.919930         1.796774         1.332771
 H         1.504608         0.268019         2.180735
 H         4.132739         0.490917         2.135327
 H         5.061450         0.905109        -0.049398
 H         3.201908         2.382835        -0.921312
 H         3.475371         1.204450        -2.101955
 H         4.215923        -1.705772         0.243341
