19
Iteration:  2024charge 0 multiplicity 1
 C         0.002936        -0.156078        -0.008761
 C         1.480054         0.150811         0.005735
 C         2.000304         0.590904         1.439273
 C         3.497537         0.326151         1.327455
 C         3.978345         0.690986        -0.095024
 C         3.107246         1.262296        -1.218935
 O         1.712346         1.030700        -1.102209
 C         3.579170        -0.716257         0.208709
 O         2.248225        -1.062633        -0.116902
 H        -0.226655        -0.716233         0.859289
 H        -0.684130         0.673326        -0.272031
 H        -0.187070        -0.856937        -0.881191
 H         1.902859         1.595327         1.878750
 H         1.590220        -0.132111         2.101553
 H         4.253692         0.419926         2.119101
 H         5.060221         0.944240        -0.211957
 H         3.112465         2.328777        -1.555489
 H         3.554061         0.653667        -2.015404
 H         4.309995        -1.554467         0.130718
