19
Iteration:  3527
 C         0.081478        -0.283722        -0.223595
 C         1.457114         0.144680         0.045480
 C         1.936686         0.613551         1.457730
 C         3.499329         0.392717         1.312658
 C         3.968660         0.615549        -0.127813
 C         3.156683         1.316817        -1.194815
 O         1.760828         1.112063        -0.915817
 C         3.505007        -0.702894         0.305861
 O         2.231399        -1.086427        -0.234643
 H        -0.287777        -0.824790         0.641458
 H        -0.572369         0.627691        -0.308670
 H         0.023326        -1.008832        -1.091815
 H         1.706574         1.677086         1.571015
 H         1.439830        -0.108106         2.230857
 H         4.162882         0.331554         2.215708
 H         5.072788         0.666831        -0.307626
 H         3.283812         2.313808        -1.122717
 H         3.541245         0.912579        -2.163018
 H         4.297057        -1.525096         0.386815
