19
Iteration:  4613
 C        -0.042825        -0.191796        -0.066742
 C         1.479485         0.096550         0.008915
 C         1.937145         0.535658         1.452522
 C         3.412346         0.358202         1.304032
 C         4.026661         0.669649        -0.100839
 C         3.187600         1.406795        -1.155119
 O         1.726688         1.051902        -0.987252
 C         3.574419        -0.770120         0.196209
 O         2.308380        -1.110592        -0.232959
 H        -0.282854        -0.789972         0.760943
 H        -0.610917         0.751593        -0.141821
 H        -0.200830        -0.622370        -1.076971
 H         1.658800         1.575597         1.734362
 H         1.453405        -0.061153         2.191949
 H         4.064596         0.566570         2.170291
 H         5.185054         0.819891        -0.193098
 H         3.237684         2.508239        -1.137010
 H         3.637363         1.226454        -2.130700
 H         4.204031        -1.671794         0.224888
