19
Iteration:  3724
 C        -0.071206        -0.320461        -0.123684
 C         1.435239         0.093772         0.055024
 C         2.017599         0.640813         1.375557
 C         3.427360         0.405919         1.310883
 C         3.992622         0.588980        -0.071795
 C         3.222701         1.299736        -1.147848
 O         1.732072         1.177254        -0.973020
 C         3.580028        -0.761108         0.285580
 O         2.266594        -1.055239        -0.267713
 H        -0.274702        -0.956428         0.687048
 H        -0.797314         0.501138        -0.131126
 H        -0.011898        -0.839145        -1.121269
 H         1.792866         1.599554         1.684728
 H         1.508132        -0.029779         2.103141
 H         4.131500         0.550860         2.098400
 H         5.181996         0.747496        -0.076573
 H         3.393490         2.412934        -1.168652
 H         3.605117         1.032041        -2.150859
 H         4.043290        -1.709778         0.270632
