19
Iteration:  1607
 C         0.024407        -0.274375        -0.190264
 C         1.427492         0.139194         0.091911
 C         2.048731         0.695360         1.537933
 C         3.395316         0.403034         1.286480
 C         3.981377         0.629419        -0.091875
 C         3.080559         1.164686        -1.289100
 O         1.750023         1.031096        -0.893169
 C         3.583777        -0.709249         0.237576
 O         2.318347        -1.011843        -0.222056
 H        -0.232595        -0.964163         0.595312
 H        -0.651258         0.629813        -0.066101
 H        -0.135000        -0.531028        -1.178868
 H         1.761037         1.807605         1.496459
 H         1.686576         0.251027         2.462871
 H         4.228803         0.376533         2.071955
 H         4.971091         1.027736        -0.394999
 H         3.161890         2.200747        -1.553007
 H         3.155590         0.506873        -2.257746
 H         4.266862        -1.561623         0.231561
