19
Iteration:  4895charge 0 multiplicity 1
 C        -0.023182        -0.270477        -0.085365
 C         1.441931         0.081264         0.010414
 C         2.080313         0.626803         1.346087
 C         3.512939         0.301897         1.270209
 C         4.039055         0.696125        -0.124413
 C         3.120835         1.567456        -0.960127
 O         1.804280         0.954113        -1.101852
 C         3.501102        -0.776190         0.149210
 O         2.201134        -1.124781        -0.107803
 H        -0.436511        -0.989935         0.526113
 H        -0.671562         0.618363         0.072136
 H        -0.371127        -0.413283        -1.211324
 H         1.895236         1.755339         1.578469
 H         1.532346         0.211848         2.139073
 H         4.057702         0.196496         2.224406
 H         5.005014         0.624443        -0.466206
 H         2.961721         2.632218        -0.519641
 H         3.500426         1.627888        -2.023287
 H         4.174055        -1.635864         0.308339
