19
Iteration:  4080charge 0 multiplicity 1
 C        -0.045276        -0.231888        -0.061796
 C         1.481574         0.076451        -0.052064
 C         2.021102         0.714741         1.250634
 C         3.494250         0.363622         1.280281
 C         4.023008         0.595319        -0.100615
 C         3.119245         1.533490        -0.884874
 O         1.772665         1.015207        -1.163818
 C         3.579983        -0.796860         0.222071
 O         2.220482        -1.240983        -0.107674
 H        -0.399225        -0.895547         0.783365
 H        -0.682177         0.673895        -0.221797
 H        -0.349215        -0.687408        -1.104942
 H         1.836186         1.847962         1.116949
 H         1.481865         0.454150         2.186601
 H         4.033743         0.416556         2.202670
 H         5.119719         0.684341        -0.058291
 H         3.029949         2.537184        -0.296280
 H         3.519369         1.744923        -1.920758
 H         4.241193        -1.607457         0.354651
