19
Iteration:  1540
 C         0.022871        -0.356912        -0.063823
 C         1.449863         0.080797         0.096472
 C         1.943268         0.648155         1.471451
 C         3.467301         0.464435         1.222430
 C         4.079860         0.633636        -0.160205
 C         3.144034         1.253730        -1.255717
 O         1.735600         1.092197        -0.998233
 C         3.543373        -0.719421         0.258409
 O         2.222059        -1.013788        -0.191210
 H        -0.202947        -1.026275         0.725487
 H        -0.444352         0.611911         0.215691
 H        -0.122600        -0.689042        -1.096912
 H         1.708254         1.708032         1.599982
 H         1.598089         0.078363         2.394131
 H         4.010973         0.409016         2.155422
 H         5.132007         0.814279        -0.057089
 H         3.365712         2.314122        -1.358851
 H         3.471610         0.720398        -2.245081
 H         4.155802        -1.616168         0.415338
