19
Iteration:  4561
 C         0.006338        -0.408419        -0.147535
 C         1.467416         0.087137         0.014337
 C         1.894960         0.650666         1.453498
 C         3.374667         0.437227         1.202312
 C         4.004344         0.564526        -0.185282
 C         3.142803         1.205784        -1.169199
 O         1.821040         1.262259        -0.751833
 C         3.584748        -0.784624         0.309199
 O         2.274544        -0.986473        -0.343834
 H        -0.239080        -0.927151         0.730831
 H        -0.528927         0.549216        -0.050360
 H        -0.184456        -0.954701        -1.146296
 H         1.711643         1.670216         1.512680
 H         1.488148         0.076953         2.362804
 H         4.141944         0.389916         2.050686
 H         4.941195         1.015338        -0.080944
 H         3.483092         2.244501        -1.242836
 H         3.389759         0.696524        -2.130032
 H         4.368731        -1.564909         0.345585
