19
Iteration:  4448charge 0 multiplicity 1
 C         0.061296        -0.368698        -0.084748
 C         1.457533         0.151640         0.018051
 C         1.999157         0.777070         1.374816
 C         3.481187         0.307146         1.274956
 C         4.013212         0.590648        -0.139893
 C         3.106485         1.515150        -0.941505
 O         1.839027         0.974517        -1.132439
 C         3.487999        -0.766198         0.213400
 O         2.174448        -1.091653        -0.201393
 H        -0.020078        -0.961422         0.884256
 H        -0.733044         0.353555         0.043971
 H        -0.166610        -0.949917        -0.936562
 H         1.694613         1.909202         1.398801
 H         1.512672         0.294701         2.187664
 H         4.179461         0.109921         2.062641
 H         5.207266         0.604797        -0.387747
 H         2.966540         2.503175        -0.413061
 H         3.572597         1.783001        -1.951837
 H         4.093886        -1.629497         0.411463
