19
Iteration:  1148
 C         0.020169        -0.300354        -0.073621
 C         1.415240         0.185189         0.091773
 C         1.973068         0.667000         1.432502
 C         3.483785         0.358004         1.247402
 C         3.999646         0.687136        -0.127816
 C         3.167909         1.258389        -1.265326
 O         1.794335         1.070431        -0.951327
 C         3.527618        -0.683661         0.278258
 O         2.243975        -1.064866        -0.202179
 H        -0.357982        -0.933652         0.826130
 H        -0.767489         0.466435        -0.216634
 H        -0.023635        -0.910893        -1.010764
 H         1.631907         1.624151         1.809357
 H         1.605804        -0.078173         2.130998
 H         4.130418         0.310921         2.124807
 H         5.093505         0.652563        -0.251247
 H         3.211128         2.280551        -1.558508
 H         3.435333         0.609215        -2.189730
 H         4.185664        -1.533558         0.344598
