19
Iteration:  4758
 C        -0.055417        -0.198129        -0.229187
 C         1.455964         0.045783         0.085575
 C         1.971823         0.524371         1.538455
 C         3.457227         0.313468         1.282503
 C         4.039888         0.765049        -0.085680
 C         3.144221         1.189735        -1.297261
 O         1.752818         1.160739        -0.834731
 C         3.587454        -0.696182         0.213675
 O         2.270848        -0.990170        -0.228335
 H        -0.324244        -0.896640         0.570041
 H        -0.616078         0.683845        -0.391559
 H        -0.097923        -0.783076        -1.123938
 H         1.525230         1.437023         1.777672
 H         1.544332        -0.208956         2.276391
 H         4.186636         0.309758         2.097764
 H         5.124038         0.946277        -0.133019
 H         3.353593         2.277492        -1.589381
 H         3.298493         0.433529        -2.071577
 H         4.219480        -1.618677         0.055826
