19
Iteration:  3991
 C         0.087913        -0.364467        -0.113547
 C         1.425635         0.189784         0.024727
 C         1.894530         0.658607         1.465974
 C         3.383936         0.396028         1.230994
 C         4.058670         0.534258        -0.096978
 C         3.178125         1.252371        -1.142150
 O         1.756879         1.184632        -0.909761
 C         3.541505        -0.764262         0.274697
 O         2.251801        -1.018653        -0.306110
 H        -0.030254        -1.251191         0.448538
 H        -0.585899         0.489819         0.123519
 H         0.004806        -0.619032        -1.252425
 H         1.559869         1.708953         1.666711
 H         1.660124         0.001304         2.302969
 H         4.145450         0.578569         2.006197
 H         4.999957         0.792654        -0.054900
 H         3.381256         2.391344        -1.294718
 H         3.499700         0.744645        -2.100375
 H         4.183991        -1.685832         0.431971
