19
Iteration:   612charge 0 multiplicity 1
 C         0.025055        -0.303781         0.099799
 C         1.464162         0.091162        -0.044606
 C         1.974790         0.781053         1.252688
 C         3.418612         0.393845         1.189027
 C         4.018763         0.614664        -0.222626
 C         3.135636         1.468645        -1.024372
 O         1.876268         0.914670        -1.101814
 C         3.527399        -0.802642         0.290203
 O         2.184160        -1.108043        -0.111341
 H        -0.058732        -0.902185         1.025038
 H        -0.503393         0.612653         0.203508
 H        -0.303702        -0.814488        -0.824470
 H         1.770989         1.938795         1.280191
 H         1.547592         0.264383         2.070533
 H         4.032039         0.423010         2.096078
 H         5.106050         0.843609        -0.191988
 H         3.073668         2.499566        -0.589138
 H         3.338083         1.607306        -2.175859
 H         4.065272        -1.676223         0.575028
