19
Iteration:  3680charge 0 multiplicity 1
 C        -0.057430        -0.128045        -0.066611
 C         1.459611         0.112087         0.002153
 C         2.006098         0.615336         1.347967
 C         3.505659         0.356274         1.276088
 C         3.964829         0.671427        -0.067213
 C         3.080592         1.529760        -0.945979
 O         1.861573         0.859271        -1.201623
 C         3.615132        -0.756234         0.234342
 O         2.192279        -1.214803        -0.133593
 H        -0.558783        -0.607947         0.742103
 H        -0.488337         0.896897        -0.270611
 H        -0.310488        -0.557571        -1.109305
 H         1.618203         1.586528         1.329389
 H         1.631001         0.091875         2.267203
 H         4.166512         0.333287         2.121435
 H         5.148892         0.878108        -0.291815
 H         3.120572         2.636473        -0.443722
 H         3.424964         1.766822        -1.973862
 H         4.299657        -1.532710         0.168192
