19
Iteration:  1259charge 0 multiplicity 1
 C         0.046444        -0.189125         0.015836
 C         1.493622         0.034898         0.051009
 C         1.992284         0.750038         1.276406
 C         3.412864         0.407690         1.262126
 C         3.954624         0.545504        -0.240236
 C         3.085964         1.470426        -0.992961
 O         1.733217         0.901946        -1.034867
 C         3.566880        -0.745446         0.254088
 O         2.313459        -1.174703        -0.179862
 H        -0.543696        -1.006308         0.532588
 H        -0.362996         0.816478         0.134879
 H         0.021995        -0.186657        -1.158380
 H         1.785570         1.864746         0.960278
 H         1.537829         0.562697         2.206931
 H         4.132634         0.479689         2.091447
 H         5.028739         0.824938        -0.118934
 H         2.994806         2.445980        -0.624885
 H         3.636933         1.554370        -1.975561
 H         4.194186        -1.669278         0.418920
