19
Iteration:  2938charge 0 multiplicity 1
 C         0.025577        -0.339190        -0.088228
 C         1.453070         0.128918         0.001324
 C         1.874182         0.632295         1.404718
 C         3.440411         0.393981         1.300866
 C         3.996618         0.568107        -0.083103
 C         3.141077         1.254130        -1.277893
 O         1.760876         1.267288        -0.877823
 C         3.598908        -0.790843         0.350136
 O         2.291016        -1.079990        -0.298714
 H        -0.150319        -1.293753         0.346029
 H        -0.742815         0.403952         0.311030
 H        -0.397640        -0.460223        -1.152215
 H         1.824991         1.775430         1.460054
 H         1.607703         0.153523         2.388610
 H         4.185635         0.383700         2.109257
 H         5.000328         0.935615        -0.168505
 H         3.570772         2.317540        -1.425951
 H         3.306424         0.776933        -2.314796
 H         4.410285        -1.525444         0.527363
