19
Iteration:  2380
 C        -0.171603        -0.209991        -0.058064
 C         1.429068         0.097240         0.019812
 C         1.935299         0.518506         1.454913
 C         3.408747         0.541106         1.192800
 C         4.081170         0.682043        -0.161457
 C         3.192440         1.130517        -1.230403
 O         1.772153         1.172885        -0.821337
 C         3.694303        -0.758240         0.314893
 O         2.288390        -1.082043        -0.302111
 H        -0.435243        -0.373688         0.964374
 H        -0.598363         0.699158        -0.536654
 H        -0.439878        -1.141633        -0.705700
 H         1.442294         1.483976         1.676935
 H         1.615639        -0.230116         2.150371
 H         4.076307         0.754993         2.018586
 H         5.167268         0.883832        -0.128831
 H         3.355704         2.112326        -1.758254
 H         3.375018         0.465767        -2.062674
 H         4.447615        -1.488750         0.517598
