19
Iteration:  4779
 C        -0.007891        -0.302949        -0.198666
 C         1.411787         0.133735         0.066207
 C         1.934743         0.538217         1.397170
 C         3.463980         0.408743         1.247952
 C         4.017367         0.578021        -0.176076
 C         3.104488         1.225428        -1.184358
 O         1.744232         1.303648        -0.783584
 C         3.602753        -0.748751         0.298354
 O         2.323263        -1.085609        -0.274417
 H        -0.364759        -0.876502         0.653186
 H        -0.467913         0.649715        -0.311657
 H        -0.141877        -0.784728        -1.185674
 H         1.733945         1.526567         1.702551
 H         1.521071        -0.071547         2.244198
 H         4.098113         0.455567         2.139899
 H         5.049510         0.844305        -0.183983
 H         3.362974         2.350230        -1.381419
 H         3.212738         0.600129        -2.072947
 H         4.395055        -1.536218         0.468806
