19
Iteration:  1869charge 0 multiplicity 1
 C        -0.072584        -0.297169         0.024210
 C         1.447146         0.148274        -0.013401
 C         2.082131         0.798465         1.336139
 C         3.585488         0.365319         1.249306
 C         4.078723         0.603218        -0.170570
 C         3.090979         1.495487        -0.980263
 O         1.749136         0.871414        -1.227810
 C         3.447986        -0.769024         0.283685
 O         2.225905        -1.110778        -0.110999
 H        -0.353305        -1.023992         0.893670
 H        -0.819409         0.491147         0.134773
 H        -0.280028        -0.761333        -0.996065
 H         1.880356         1.899836         1.457749
 H         1.677442         0.400979         2.273720
 H         4.306542         0.130473         2.033319
 H         5.133024         0.418974        -0.400304
 H         3.006885         2.511052        -0.510003
 H         3.436419         1.734943        -1.952684
 H         4.297900        -1.486565         0.277218
