19
Iteration:  3626charge 0 multiplicity 1
 C        -0.031046        -0.296932        -0.111961
 C         1.481062         0.041710        -0.053023
 C         1.999697         0.734116         1.308101
 C         3.448290         0.350305         1.249747
 C         4.037918         0.617911        -0.080947
 C         3.203069         1.447651        -1.033662
 O         1.739944         1.065877        -0.992093
 C         3.559687        -0.757871         0.296754
 O         2.201329        -1.154889        -0.178073
 H        -0.304739        -1.159361         0.483743
 H        -0.709867         0.546997         0.217794
 H        -0.201312        -0.443041        -1.255051
 H         1.751932         1.768205         1.162936
 H         1.530535         0.437094         2.319233
 H         4.120191         0.406461         2.106181
 H         5.207951         0.629267        -0.201591
 H         3.347963         2.457510        -0.731817
 H         3.424313         1.355180        -2.109087
 H         4.192450        -1.594666         0.378377
