19
Iteration:  1663
 C        -0.007047        -0.251751         0.034016
 C         1.474982         0.083846         0.039462
 C         1.957123         0.761853         1.348705
 C         3.466651         0.414740         1.250935
 C         4.034257         0.591351        -0.192574
 C         3.091589         1.487489        -1.025068
 O         1.781161         0.917791        -1.149494
 C         3.545795        -0.810119         0.255532
 O         2.243498        -1.181070        -0.175588
 H        -0.340760        -0.646199         1.022036
 H        -0.331249         0.756662         0.009402
 H        -0.227303        -0.924595        -0.731194
 H         1.767725         1.924249         1.171969
 H         1.452021         0.456033         2.258554
 H         4.310399         0.479812         1.928422
 H         5.109757         0.836701        -0.330457
 H         3.069786         2.445051        -0.520305
 H         3.561766         1.744696        -2.046561
 H         4.276215        -1.577012         0.447315
