19
Iteration:   622
 C        -0.058221        -0.280185         0.126944
 C         1.464589         0.067500        -0.073995
 C         1.916849         0.760019         1.289785
 C         3.397074         0.430732         1.136539
 C         4.093930         0.546372        -0.164994
 C         3.166848         1.458371        -1.043556
 O         1.806385         0.979780        -1.149218
 C         3.606024        -0.796259         0.302451
 O         2.220479        -1.147821        -0.121314
 H        -0.082186        -0.852679         1.081167
 H        -0.621268         0.588649         0.202438
 H        -0.490986        -0.997079        -0.571996
 H         1.775228         1.959989         1.387135
 H         1.497247         0.398465         2.245493
 H         4.097874         0.679119         1.940706
 H         5.140318         0.883748        -0.138469
 H         3.227443         2.356493        -0.408482
 H         3.652708         1.757298        -2.114104
 H         4.134047        -1.707663         0.361832
