19
Iteration:  4776charge 0 multiplicity 1
 C        -0.017796        -0.315097        -0.177660
 C         1.415536         0.142629         0.083531
 C         1.912249         0.510135         1.399786
 C         3.469171         0.395376         1.284958
 C         4.045803         0.602694        -0.173485
 C         3.110404         1.223405        -1.192256
 O         1.747506         1.300965        -0.797272
 C         3.630409        -0.733718         0.269839
 O         2.304559        -1.088324        -0.271674
 H        -0.589208        -0.811898         0.550601
 H        -0.516795         0.679468        -0.328954
 H        -0.092807        -0.758309        -1.270913
 H         1.772903         1.598590         1.702310
 H         1.579918        -0.058139         2.253919
 H         4.096866         0.472520         2.206244
 H         5.034587         0.837423        -0.224470
 H         3.342146         2.249595        -1.526983
 H         3.209439         0.627911        -2.118273
 H         4.347358        -1.510326         0.477344
