19
Iteration:  2700
 C         0.012155        -0.330239        -0.027871
 C         1.465342         0.132892        -0.005789
 C         1.985116         0.710062         1.293411
 C         3.481288         0.419452         1.254759
 C         4.016703         0.548308        -0.084227
 C         3.134898         1.411548        -1.038992
 O         1.793387         1.026906        -1.030206
 C         3.476971        -0.824185         0.267979
 O         2.248611        -1.081117        -0.227438
 H        -0.216479        -1.125753         0.660337
 H        -0.533968         0.576898         0.288028
 H        -0.221531        -0.627116        -1.115017
 H         1.753539         1.782287         1.317429
 H         1.453506         0.342907         2.218780
 H         4.078580         0.447163         2.157030
 H         5.081275         0.799308        -0.225963
 H         3.320279         2.580329        -0.735227
 H         3.393714         1.545642        -2.122122
 H         4.155485        -1.647611         0.311968
