19
Iteration:  1167charge 0 multiplicity 1
 C        -0.062273        -0.309400        -0.103648
 C         1.466742         0.058356         0.010735
 C         2.002134         0.669739         1.389600
 C         3.482489         0.410118         1.289644
 C         4.072045         0.575453        -0.153585
 C         3.138980         1.217776        -1.171374
 O         1.631531         1.174980        -0.950439
 C         3.681861        -0.789549         0.301645
 O         2.281700        -1.008888        -0.210528
 H        -0.372495        -0.869699         0.816617
 H        -0.683599         0.649993        -0.201801
 H        -0.333139        -0.840180        -0.999707
 H         1.802112         1.700484         1.244026
 H         1.497513         0.461300         2.445875
 H         4.027330         0.586007         2.208628
 H         5.036446         1.023490        -0.128109
 H         3.518641         2.261627        -1.244271
 H         3.141981         0.808430        -2.147118
 H         4.177107        -1.799944         0.373461
