19
Iteration:  3896charge 0 multiplicity 1
 C        -0.042852        -0.203385        -0.110970
 C         1.497524         0.151377        -0.049563
 C         1.970031         0.558936         1.336991
 C         3.493252         0.384309         1.259391
 C         3.993138         0.676549        -0.085087
 C         3.136485         1.444385        -1.040594
 O         1.823904         0.996312        -1.063851
 C         3.552703        -0.746495         0.220147
 O         2.197892        -1.160804        -0.071416
 H        -0.292429        -0.845152         0.674082
 H        -0.651231         0.719841        -0.214855
 H        -0.205585        -0.845294        -1.075918
 H         1.879343         1.656095         1.690906
 H         1.396885        -0.140751         1.947265
 H         4.122012         0.518543         2.141657
 H         5.161596         0.809375        -0.078798
 H         3.203107         2.479363        -0.691097
 H         3.391362         1.343002        -2.126811
 H         4.248657        -1.627892         0.082916
