19
Iteration:  1697
 C        -0.015800        -0.176874        -0.079031
 C         1.482888         0.138976        -0.008851
 C         2.036305         0.737056         1.374282
 C         3.593866         0.298647         1.265049
 C         4.014033         0.744781        -0.163917
 C         3.044209         1.469104        -1.005652
 O         1.765224         0.810864        -1.184193
 C         3.559371        -0.764990         0.163097
 O         2.204042        -1.190697         0.020919
 H        -0.278905        -0.791626         0.796259
 H        -0.461211         0.754995         0.061405
 H        -0.489879        -0.422905        -1.006576
 H         1.612740         1.806459         1.286051
 H         1.457190         0.273164         2.190746
 H         4.205636         0.366787         2.097253
 H         5.046145         0.971602        -0.323923
 H         2.731146         2.436413        -0.668653
 H         3.603795         1.511316        -1.993389
 H         4.295408        -1.577979         0.179982
