19
Iteration:   402charge 0 multiplicity 1
 C        -0.048780        -0.269737         0.055993
 C         1.430475         0.048278        -0.012888
 C         2.080245         0.806292         1.297107
 C         3.480660         0.313432         1.343997
 C         4.003092         0.653251         0.012655
 C         3.102837         1.444227        -1.100139
 O         1.745040         0.921464        -1.170633
 C         3.566020        -0.768644         0.240448
 O         2.239430        -1.131192        -0.188068
 H        -0.327893        -1.116413         0.759003
 H        -0.519798         0.742664         0.284576
 H        -0.249029        -0.546786        -1.014265
 H         1.954713         1.844521         0.878751
 H         1.428341         0.749783         2.111936
 H         4.195368         0.442923         2.136110
 H         5.089464         0.858281        -0.040702
 H         3.192085         2.530118        -1.005726
 H         3.557658         1.238071        -2.023503
 H         4.355289        -1.498285         0.153253
