19
Iteration:  2528
 C        -0.040666        -0.108960        -0.147330
 C         1.502530         0.007559         0.050642
 C         1.904025         0.615533         1.377699
 C         3.428389         0.417173         1.256215
 C         4.015627         0.699497        -0.152756
 C         3.131139         1.225820        -1.236777
 O         1.724616         1.064747        -0.858531
 C         3.647843        -0.766872         0.303316
 O         2.315247        -1.117798        -0.209728
 H        -0.393506        -1.143898        -0.013369
 H        -0.491545         0.542604         0.598434
 H        -0.379752         0.259133        -1.176761
 H         1.499006         1.631617         1.387164
 H         1.750009         0.111294         2.355534
 H         4.080333         0.525099         2.104990
 H         5.105475         0.837635        -0.034615
 H         3.271399         2.376656        -1.202790
 H         3.314379         0.856807        -2.197720
 H         4.346937        -1.602410         0.409818
