19
Iteration:  3636charge 0 multiplicity 1
 C         0.020717        -0.222585        -0.089152
 C         1.487824         0.022571         0.040647
 C         1.941353         0.748975         1.328553
 C         3.508533         0.346746         1.254742
 C         4.002504         0.584121        -0.145350
 C         3.131328         1.504097        -0.954906
 O         1.808056         1.012104        -1.105317
 C         3.505260        -0.806596         0.244270
 O         2.210238        -1.176667        -0.159372
 H        -0.122111        -1.105829         0.462954
 H        -0.735924         0.571937         0.121434
 H        -0.188947        -0.574501        -1.192181
 H         1.859000         1.800470         1.233586
 H         1.352302         0.425040         2.236630
 H         4.031592         0.539856         2.209127
 H         5.154576         0.856210        -0.295590
 H         3.087911         2.633391        -0.594531
 H         3.711405         1.601877        -1.897524
 H         4.192416        -1.627425         0.350374
