19
Iteration:  4034charge 0 multiplicity 1
 C        -0.009493        -0.094468        -0.131299
 C         1.475800         0.047239         0.051426
 C         1.970067         0.631688         1.414341
 C         3.467239         0.343630         1.269366
 C         4.007136         0.702253        -0.059559
 C         3.132748         1.501736        -1.025040
 O         1.778043         0.879910        -1.110996
 C         3.562560        -0.765865         0.172172
 O         2.250576        -1.187729        -0.146586
 H        -0.376581        -0.629396         0.701496
 H        -0.462142         0.904816        -0.301268
 H        -0.270246        -0.721653        -1.083528
 H         1.675537         1.697498         1.522544
 H         1.424482         0.055610         2.149294
 H         4.101803         0.407344         2.171033
 H         4.970674         0.942108        -0.197669
 H         3.154505         2.548463        -0.596511
 H         3.516810         1.519336        -2.075319
 H         4.341733        -1.579911         0.081207
