19
Iteration:  4920
 C         0.087906        -0.276607        -0.067874
 C         1.467603         0.141326         0.025569
 C         2.007815         0.659992         1.432472
 C         3.430841         0.278495         1.272466
 C         3.960863         0.649811        -0.130140
 C         3.153730         1.409272        -1.084472
 O         1.738385         1.078132        -0.983121
 C         3.539639        -0.847329         0.198968
 O         2.240909        -1.049443        -0.237404
 H        -0.214458        -1.082885         0.661154
 H        -0.727836         0.409671        -0.165923
 H         0.008217        -0.676886        -1.094579
 H         1.854957         1.702573         1.490174
 H         1.464497         0.332261         2.320968
 H         4.128016         0.422259         2.076512
 H         4.996586         0.913958        -0.150320
 H         3.175567         2.445675        -0.795152
 H         3.438660         1.247461        -2.107596
 H         4.230816        -1.725846         0.077129
