19
Iteration:  2106charge 0 multiplicity 1
 C        -0.011772        -0.303302        -0.043922
 C         1.479421         0.210424         0.049935
 C         2.066531         0.758863         1.399794
 C         3.550565         0.308799         1.287710
 C         3.885997         0.616421        -0.121940
 C         3.124913         1.423448        -1.157723
 O         1.801049         0.946727        -1.122222
 C         3.535201        -0.754480         0.197695
 O         2.179866        -1.125097        -0.052116
 H        -0.192489        -1.318990         0.416318
 H        -0.624610         0.376019         0.524590
 H        -0.188376        -0.418132        -1.157679
 H         2.113254         1.847404         1.334301
 H         1.438868         0.409343         2.275426
 H         4.345837         0.480320         2.090693
 H         4.921199         0.763900        -0.338944
 H         2.903427         2.504205        -1.035200
 H         3.553128         1.210911        -2.165494
 H         4.268081        -1.501986         0.057506
