19
Iteration:   456charge 0 multiplicity 1
 C        -0.017706        -0.251377        -0.172952
 C         1.438294         0.004719         0.061292
 C         1.952123         0.596108         1.411814
 C         3.458757         0.553753         1.206398
 C         3.979063         0.590351        -0.241953
 C         3.174669         1.332579        -1.167105
 O         1.810130         1.132315        -1.010848
 C         3.546035        -0.719385         0.252036
 O         2.263443        -1.138146         0.001105
 H        -0.428468        -0.804461         0.677657
 H        -0.542824         0.731683        -0.052216
 H        -0.329600        -1.014108        -0.882667
 H         1.420956         1.532704         1.640585
 H         1.812073        -0.081950         2.352194
 H         4.204213         0.644558         1.980971
 H         5.067550         0.486954        -0.372909
 H         3.372820         2.377606        -0.860062
 H         3.437698         1.140991        -2.298730
 H         4.240203        -1.571524         0.326279
