19
Iteration:  2806charge 0 multiplicity 1
 C         0.087172        -0.318735        -0.093340
 C         1.542582         0.159224         0.064578
 C         1.936693         0.628814         1.418165
 C         3.402585         0.365830         1.281784
 C         4.037608         0.621672        -0.090868
 C         3.212481         1.343386        -1.208185
 O         1.725327         1.162680        -1.005769
 C         3.491817        -0.787300         0.189427
 O         2.195264        -1.035644        -0.146372
 H        -0.115333        -1.069342         0.739544
 H        -0.722575         0.402437        -0.238975
 H         0.260085        -0.981528        -0.991669
 H         1.605678         1.723383         1.733896
 H         1.428446        -0.167195         2.119594
 H         4.072471         0.210699         2.091030
 H         5.128838         0.741556        -0.229778
 H         3.424708         2.350424        -1.243924
 H         3.232759         0.747081        -2.135700
 H         4.226502        -1.505686         0.400823
