19
Iteration:  4620charge 0 multiplicity 1
 C        -0.005680        -0.139059        -0.053128
 C         1.483785         0.072844         0.056860
 C         1.897997         0.508618         1.422827
 C         3.432217         0.421806         1.254020
 C         4.002162         0.627315        -0.148669
 C         3.180447         1.458178        -1.136400
 O         1.798710         1.012070        -0.979993
 C         3.576817        -0.752451         0.233165
 O         2.290666        -1.142627        -0.238372
 H        -0.560515        -0.924786         0.650654
 H        -0.586417         0.819568        -0.054162
 H        -0.221153        -0.585027        -1.009408
 H         1.550280         1.633821         1.486955
 H         1.419685        -0.065953         2.266320
 H         3.944032         0.255347         2.177883
 H         5.105168         0.954255        -0.159748
 H         3.111796         2.556764        -0.876210
 H         3.471923         1.232854        -2.207954
 H         4.333904        -1.533019         0.221988
