19
Iteration:  1700charge 0 multiplicity 1
 C         0.014454        -0.160404        -0.066438
 C         1.475569         0.112380         0.020320
 C         2.020010         0.729775         1.389883
 C         3.584988         0.320444         1.233238
 C         4.001315         0.714804        -0.170233
 C         3.075938         1.487217        -1.025536
 O         1.768492         0.840327        -1.205423
 C         3.566402        -0.770407         0.170177
 O         2.208211        -1.207828         0.033449
 H        -0.288309        -0.828319         0.723075
 H        -0.611525         0.759611         0.120864
 H        -0.480895        -0.444063        -1.080549
 H         1.542994         1.726584         1.319998
 H         1.447650         0.219044         2.242602
 H         4.162039         0.421559         2.172589
 H         5.027689         1.020253        -0.328071
 H         2.765764         2.502966        -0.689306
 H         3.506354         1.560631        -2.008478
 H         4.248619        -1.652191         0.207889
