19
Iteration:  2955
 C         0.069432        -0.297385        -0.086035
 C         1.469199         0.136377         0.020152
 C         1.929183         0.554478         1.450272
 C         3.370046         0.357638         1.288675
 C         4.036019         0.670647        -0.124894
 C         3.171035         1.122879        -1.225488
 O         1.768107         1.211068        -0.896644
 C         3.529146        -0.715148         0.267114
 O         2.280305        -0.914212        -0.250307
 H         0.020461        -1.339026         0.413007
 H        -0.709153         0.396371         0.205922
 H        -0.175730        -0.569249        -1.116601
 H         1.528148         1.493420         1.832930
 H         1.470478        -0.228263         2.026908
 H         4.051330         0.534386         2.123757
 H         5.149080         0.819005        -0.119237
 H         3.346185         2.019367        -1.801953
 H         3.399787         0.486348        -2.078738
 H         4.063085        -1.670677         0.340022
