19
Iteration:  1033charge 0 multiplicity 1
 C        -0.086648        -0.228172        -0.002529
 C         1.437837         0.092479         0.022118
 C         2.025183         0.701146         1.272643
 C         3.540339         0.480710         1.228012
 C         4.017219         0.560325        -0.220994
 C         3.139612         1.428210        -1.021417
 O         1.785016         0.921156        -1.090102
 C         3.537501        -0.779919         0.299945
 O         2.249682        -1.117825        -0.133211
 H        -0.398575        -0.895266         0.797162
 H        -0.693221         0.669865         0.136174
 H        -0.250916        -0.711330        -1.008874
 H         1.650659         1.806364         1.304852
 H         1.630594         0.164721         2.249722
 H         3.956749         0.682445         2.225201
 H         5.114531         0.761181        -0.201160
 H         3.250955         2.437691        -0.525989
 H         3.474696         1.417193        -2.012981
 H         4.185217        -1.625138         0.217245
