19
Iteration:  1519charge 0 multiplicity 1
 C        -0.055480        -0.267561        -0.081509
 C         1.465763         0.158190         0.012465
 C         2.067577         0.769802         1.279621
 C         3.525714         0.286702         1.362238
 C         3.974170         0.645003        -0.161239
 C         3.061268         1.361852        -1.093802
 O         1.671407         1.008048        -1.027396
 C         3.628171        -0.732036         0.317754
 O         2.288111        -1.156408        -0.174652
 H        -0.316533        -0.918874         0.716225
 H        -0.814760         0.567172        -0.021861
 H        -0.146467        -0.819546        -1.004341
 H         1.989275         1.894142         1.338317
 H         1.645956         0.407494         2.248167
 H         4.182853         0.565356         2.198302
 H         5.014068         0.844269        -0.265259
 H         3.336361         2.388097        -1.083689
 H         3.204684         0.953499        -2.131833
 H         4.349648        -1.549517         0.161599
