19
Iteration:  2232
 C         0.022874        -0.252289         0.001985
 C         1.517908         0.107548        -0.008816
 C         1.927813         0.661555         1.333747
 C         3.451965         0.492897         1.183370
 C         4.032845         0.552249        -0.237365
 C         3.163356         1.444502        -1.096302
 O         1.788587         0.998437        -0.992700
 C         3.503942        -0.787794         0.233928
 O         2.204704        -1.150134        -0.077485
 H        -0.226576        -0.862531         0.863586
 H        -0.562027         0.666114         0.086303
 H        -0.152412        -0.662687        -0.913638
 H         1.643953         1.708925         1.452302
 H         1.464013         0.100621         2.169411
 H         4.201630         0.614990         2.015972
 H         5.132593         0.686278        -0.271114
 H         3.346908         2.450780        -0.695652
 H         3.401682         1.291657        -2.224886
 H         4.213099        -1.569985         0.261131
