19
Iteration:  1947charge 0 multiplicity 1
 C         0.034089        -0.208619        -0.167348
 C         1.465038         0.149410         0.165728
 C         1.944359         0.595006         1.518558
 C         3.470868         0.441656         1.237304
 C         4.043773         0.656918        -0.228358
 C         3.131594         1.199114        -1.274219
 O         1.716637         1.073912        -0.934359
 C         3.549322        -0.755421         0.225936
 O         2.263119        -1.035881        -0.140402
 H        -0.307453        -1.039627         0.425937
 H        -0.705127         0.556546         0.055402
 H        -0.089948        -0.601658        -1.256687
 H         1.708353         1.631725         1.879640
 H         1.775008        -0.089153         2.282888
 H         4.170944         0.418012         2.138896
 H         5.110717         0.772047        -0.384824
 H         3.268174         2.296385        -1.432086
 H         3.284770         0.653229        -2.172781
 H         4.243730        -1.509507         0.480676
