19
Iteration:  1379
 C         0.130679        -0.331956         0.011703
 C         1.480982         0.179430         0.073987
 C         1.948025         0.549388         1.501705
 C         3.390493         0.416026         1.219004
 C         4.008608         0.697542        -0.145743
 C         3.143445         1.200405        -1.350206
 O         1.794081         1.138911        -0.970830
 C         3.527248        -0.748993         0.310129
 O         2.212980        -1.020432        -0.194485
 H        -0.227134        -1.216922         0.466189
 H        -0.698927         0.445227         0.056085
 H         0.110198        -0.500548        -1.099037
 H         1.677829         1.663981         1.711525
 H         1.404358        -0.090754         2.165341
 H         3.886875         0.575634         2.143612
 H         5.015561         1.027777        -0.214965
 H         3.507296         2.269816        -1.620895
 H         3.214654         0.613928        -2.230892
 H         4.248945        -1.592197         0.373746
