19
Iteration:  4129
 C        -0.019598        -0.289767        -0.139668
 C         1.430404         0.134682         0.009113
 C         1.932457         0.544854         1.416058
 C         3.448661         0.415187         1.277551
 C         4.023362         0.685018        -0.070231
 C         3.263208         1.213629        -1.218216
 O         1.728831         1.213471        -1.010452
 C         3.580215        -0.752374         0.331893
 O         2.228788        -1.048382        -0.172482
 H        -0.164958        -1.226720         0.364060
 H        -0.776840         0.460125         0.068646
 H        -0.138478        -0.459590        -1.184755
 H         1.637945         1.423763         1.917627
 H         1.776486        -0.269929         2.130506
 H         4.096278         0.409995         2.178544
 H         5.082198         0.959565        -0.160258
 H         3.383407         2.386909        -1.441005
 H         3.559183         0.645872        -2.084096
 H         4.120966        -1.747427         0.408873
