19
Iteration:  1409charge 0 multiplicity 1
 C        -0.107581        -0.358409        -0.052345
 C         1.442152         0.094908        -0.024545
 C         2.021092         0.651006         1.412875
 C         3.465678         0.466390         1.205829
 C         4.079244         0.623065        -0.159741
 C         3.133965         1.239484        -1.183647
 O         1.732544         1.144805        -0.956744
 C         3.589613        -0.738283         0.319184
 O         2.284908        -1.057434        -0.180174
 H        -0.295884        -1.226255         0.574893
 H        -0.638335         0.526497         0.175570
 H        -0.361103        -0.628964        -1.115935
 H         1.808557         1.755460         1.456363
 H         1.522995         0.232158         2.357503
 H         3.934730         0.408921         2.169553
 H         5.142536         0.839850        -0.335917
 H         3.469741         2.287716        -1.057612
 H         3.263300         0.926840        -2.239002
 H         4.191544        -1.626944         0.541498
