19
Iteration:  2355charge 0 multiplicity 1
 C         0.063518        -0.276695        -0.091167
 C         1.481365         0.100619         0.035415
 C         2.019763         0.664392         1.444628
 C         3.404590         0.339086         1.334546
 C         4.024815         0.648618        -0.129301
 C         3.044476         1.145559        -1.283607
 O         1.676742         1.190443        -0.901415
 C         3.580779        -0.773224         0.327721
 O         2.305811        -0.986819        -0.256460
 H        -0.264036        -0.836639         0.740298
 H        -0.424791         0.642047        -0.273048
 H         0.042894        -0.812557        -1.022306
 H         1.875784         1.728358         1.377500
 H         1.509065         0.308029         2.321570
 H         4.015170         0.303261         2.199778
 H         5.066936         0.912284        -0.170040
 H         3.231078         2.113277        -1.798872
 H         3.252886         0.414070        -2.159482
 H         4.344936        -1.575412         0.206845
