19
Iteration:  4367
 C        -0.087881        -0.331921        -0.119258
 C         1.444348         0.168164         0.007694
 C         1.948987         0.509579         1.472094
 C         3.383969         0.371498         1.363374
 C         4.082980         0.666258        -0.138684
 C         3.186376         1.146360        -1.263515
 O         1.758598         1.239277        -0.913120
 C         3.560672        -0.649961         0.278076
 O         2.337038        -0.999544        -0.265410
 H        -0.147173        -1.137222         0.585510
 H        -0.775739         0.536502         0.109840
 H        -0.277220        -0.810059        -1.137314
 H         1.531859         1.463746         1.658736
 H         1.563323        -0.214625         2.291029
 H         4.090472         0.332975         2.211151
 H         5.016833         0.953085        -0.153446
 H         3.480025         2.226371        -1.622623
 H         3.455419         0.497094        -2.065731
 H         4.107000        -1.601116         0.331150
