19
Iteration:   818charge 0 multiplicity 1
 C        -0.049401        -0.256957        -0.116800
 C         1.460431         0.092233         0.015298
 C         2.114028         0.759851         1.387263
 C         3.595203         0.345765         1.279240
 C         3.993102         0.591139        -0.175001
 C         3.092438         1.471360        -1.116272
 O         1.754244         0.904856        -1.119240
 C         3.511564        -0.777139         0.211718
 O         2.190227        -1.098644         0.013001
 H        -0.240059        -0.741499         0.858254
 H        -0.609738         0.651641        -0.234964
 H        -0.117107        -0.875394        -1.063881
 H         1.808479         1.906254         1.447128
 H         1.539333         0.254579         2.212775
 H         4.134540         0.550355         2.189151
 H         5.078992         0.822780        -0.395486
 H         2.914189         2.560031        -0.791512
 H         3.422312         1.546702        -2.130153
 H         4.155003        -1.673509         0.331898
