19
Iteration:  4215charge 0 multiplicity 1
 C         0.084639        -0.356651        -0.124803
 C         1.468269         0.112883         0.007482
 C         1.953785         0.633920         1.486719
 C         3.431084         0.360797         1.239084
 C         3.937704         0.615570        -0.139494
 C         3.241411         1.479194        -1.166870
 O         1.796237         1.117543        -1.062854
 C         3.478432        -0.805313         0.266915
 O         2.211006        -1.088371        -0.141797
 H        -0.125673        -0.866317         0.805270
 H        -0.685307         0.447104        -0.224628
 H         0.102127        -0.918883        -1.029280
 H         1.652855         1.631994         1.636723
 H         1.529693        -0.055326         2.280337
 H         3.995551         0.605103         2.118158
 H         4.960351         0.862187        -0.023401
 H         3.446704         2.507766        -0.911891
 H         3.686123         1.233768        -2.141034
 H         3.981396        -1.769951         0.479063
