19
Iteration:  3743charge 0 multiplicity 1
 C         0.039840        -0.406316        -0.148025
 C         1.453170         0.185782        -0.021823
 C         1.886697         0.605990         1.489366
 C         3.462898         0.360479         1.266584
 C         4.055791         0.619194        -0.110627
 C         3.197548         1.221161        -1.209926
 O         1.791187         1.227682        -0.896281
 C         3.523241        -0.759830         0.301652
 O         2.203476        -0.957318        -0.257519
 H        -0.043496        -1.168764         0.545044
 H        -0.737024         0.284117         0.148895
 H        -0.020812        -0.774980        -1.201894
 H         1.589266         1.655076         1.683974
 H         1.470867         0.064721         2.302790
 H         4.067758         0.266170         2.183122
 H         5.170657         0.785039        -0.230000
 H         3.379211         2.183756        -1.542993
 H         3.364565         0.639247        -2.151975
 H         4.218161        -1.536131         0.467003
