19
Iteration:  4699
 C        -0.037283        -0.286914        -0.005472
 C         1.462140         0.070025         0.051188
 C         1.950135         0.726433         1.298672
 C         3.453700         0.352132         1.256947
 C         4.026894         0.600429        -0.148287
 C         3.202316         1.460190        -0.987683
 O         1.813144         1.064330        -1.019975
 C         3.523928        -0.770998         0.194392
 O         2.222659        -1.148006        -0.256194
 H        -0.175416        -1.229664         0.589097
 H        -0.850130         0.359773         0.401324
 H        -0.197758        -0.703961        -1.055454
 H         1.685925         1.869786         1.321386
 H         1.538651         0.177514         2.137943
 H         4.102057         0.475483         2.131660
 H         5.152077         0.735409        -0.226715
 H         3.182007         2.560306        -0.649047
 H         3.613705         1.483643        -2.017370
 H         4.200145        -1.581038         0.410660
