19
Iteration:   700charge 0 multiplicity 1
 C         0.026154        -0.259987        -0.162280
 C         1.416756         0.089147        -0.022692
 C         1.972778         0.593674         1.401364
 C         3.542092         0.553931         1.181755
 C         4.088694         0.597819        -0.188785
 C         3.124049         1.243965        -1.265603
 O         1.716057         1.122895        -0.855124
 C         3.564600        -0.733712         0.385851
 O         2.197407        -1.118106        -0.103135
 H        -0.185764        -0.955351         0.585123
 H        -0.629099         0.568400         0.021748
 H        -0.306965        -0.609734        -1.148155
 H         1.485711         1.673238         1.574770
 H         1.913588         0.019867         2.302010
 H         4.228503         0.696519         2.011579
 H         5.146799         0.948033        -0.430876
 H         3.513406         2.242220        -1.387730
 H         3.229904         0.681275        -2.299000
 H         3.970452        -1.729500         0.701767
