19
Iteration:  4278charge 0 multiplicity 1
 C         0.080694        -0.093147        -0.075751
 C         1.544483         0.057637         0.007108
 C         1.998650         0.646866         1.361269
 C         3.437769         0.300417         1.325811
 C         3.962861         0.730678        -0.126586
 C         3.050675         1.559500        -0.972508
 O         1.827285         0.821515        -1.170128
 C         3.503167        -0.770020         0.224705
 O         2.243481        -1.183945        -0.139448
 H        -0.433176        -0.828574         0.653071
 H        -0.459906         0.914105         0.068626
 H        -0.115976        -0.527203        -1.073385
 H         1.645487         1.681834         1.485156
 H         1.535837        -0.018667         2.164884
 H         4.003743         0.383707         2.223418
 H         5.028618         0.900462        -0.456060
 H         2.947081         2.709796        -0.662139
 H         3.350503         1.591070        -2.061186
 H         4.236124        -1.578565         0.226936
