19
Iteration:  4890
 C        -0.065223        -0.219029        -0.069463
 C         1.419537         0.044435        -0.040202
 C         2.073783         0.615133         1.301098
 C         3.532719         0.318159         1.217419
 C         4.035174         0.681767        -0.129002
 C         3.127794         1.576969        -0.931988
 O         1.802831         0.936430        -1.096839
 C         3.515926        -0.778125         0.219204
 O         2.207197        -1.123372        -0.103098
 H        -0.535678        -1.094966         0.568266
 H        -0.686600         0.659574         0.157437
 H        -0.186610        -0.349329        -1.081981
 H         1.813499         1.640475         1.451015
 H         1.641639         0.081214         2.276831
 H         4.030440         0.304494         2.179545
 H         5.244451         0.735196        -0.456035
 H         2.919675         2.564891        -0.461997
 H         3.556395         1.825678        -1.916137
 H         4.173480        -1.629546         0.220992
