19
Iteration:  3292
 C        -0.006111        -0.284971        -0.107814
 C         1.433962         0.083983         0.038438
 C         2.003308         0.743834         1.417311
 C         3.475082         0.314793         1.265195
 C         3.973865         0.603110        -0.150274
 C         3.131558         1.493313        -0.986547
 O         1.811616         0.938475        -1.104413
 C         3.534710        -0.761204         0.209756
 O         2.245061        -1.070588        -0.158932
 H        -0.196299        -1.159094         0.401670
 H        -0.540067         0.531454         0.379119
 H        -0.146293        -0.424863        -1.194172
 H         1.690546         1.780768         1.280007
 H         1.454724         0.238933         2.184622
 H         4.180111         0.296392         2.058546
 H         5.135719         0.694894        -0.020582
 H         3.099821         2.674763        -0.637108
 H         3.534437         1.460806        -2.011026
 H         4.129704        -1.673197         0.085344
