19
Iteration:  2044charge 0 multiplicity 1
 C        -0.019464        -0.126095         0.020239
 C         1.470633         0.032006         0.026530
 C         1.996993         0.632478         1.330153
 C         3.446162         0.413614         1.235209
 C         4.041271         0.678418        -0.169765
 C         3.095570         1.434244        -1.168117
 O         1.752943         0.948427        -1.042382
 C         3.577164        -0.793457         0.283214
 O         2.257271        -1.190023        -0.134470
 H        -0.425777        -0.655723         0.847821
 H        -0.338046         0.907376         0.103277
 H        -0.494094        -0.463543        -0.968163
 H         1.684448         1.740376         1.268585
 H         1.615038         0.145924         2.262210
 H         4.124143         0.496034         2.118883
 H         5.117133         0.759455        -0.262749
 H         3.188110         2.529046        -0.841395
 H         3.500894         1.285906        -2.243917
 H         4.369823        -1.519738         0.401379
