19
Iteration:   628charge 0 multiplicity 1
 C        -0.076325        -0.268212         0.110985
 C         1.440257         0.065661        -0.005050
 C         1.921415         0.747875         1.293186
 C         3.442387         0.451244         1.193586
 C         4.103166         0.513822        -0.163777
 C         3.238269         1.455925        -1.049737
 O         1.725880         1.006319        -1.196708
 C         3.589495        -0.787383         0.287284
 O         2.270074        -1.165926        -0.145244
 H        -0.131850        -0.697752         1.123810
 H        -0.868729         0.579543         0.181913
 H        -0.628924        -0.989927        -0.521606
 H         1.696447         1.746896         1.214479
 H         1.430660         0.345168         2.241058
 H         4.057612         0.775485         2.028217
 H         5.158852         0.767516        -0.159983
 H         3.189700         2.422742        -0.498127
 H         3.687769         1.673232        -1.941481
 H         4.376691        -1.599644         0.339310
