19
Iteration:  2869charge 0 multiplicity 1
 C        -0.010521        -0.075485        -0.045167
 C         1.557667         0.049176        -0.073755
 C         2.006191         0.621671         1.311415
 C         3.493924         0.326647         1.244630
 C         3.967737         0.700307        -0.128148
 C         3.029479         1.566698        -0.919807
 O         1.857987         0.841181        -1.187735
 C         3.579462        -0.748653         0.229957
 O         2.170486        -1.199261        -0.048422
 H        -0.283610        -0.684770         0.910089
 H        -0.550745         0.866177        -0.090060
 H        -0.358746        -0.659673        -0.905651
 H         1.775723         1.704302         1.299415
 H         1.506622        -0.030677         1.990411
 H         4.151970         0.264304         2.084426
 H         5.055690         0.794384        -0.258917
 H         2.849567         2.593030        -0.344741
 H         3.536255         1.820475        -1.904844
 H         4.183106        -1.609082         0.112405
