19
Iteration:  3797charge 0 multiplicity 1
 C        -0.063721        -0.163243        -0.173702
 C         1.445203         0.095428         0.054286
 C         1.939451         0.496489         1.407757
 C         3.446009         0.417161         1.292276
 C         4.070062         0.658951        -0.107518
 C         3.164275         1.249229        -1.197129
 O         1.733252         1.079135        -0.922423
 C         3.565622        -0.709503         0.283841
 O         2.328753        -1.069742        -0.209867
 H        -0.466306        -1.012958         0.305592
 H        -0.521686         0.814418         0.076925
 H        -0.101097        -0.106306        -1.327177
 H         1.396351         1.469352         1.729302
 H         1.661552        -0.232840         2.162469
 H         3.992799         0.507575         2.251454
 H         5.196731         0.913691        -0.194150
 H         3.143312         2.312773        -1.346436
 H         3.421469         0.727890        -2.178657
 H         4.290124        -1.451199         0.471280
