19
Iteration:  1944
 C         0.036039        -0.186663        -0.172077
 C         1.446418         0.156583         0.146591
 C         1.951980         0.612127         1.513398
 C         3.484584         0.436447         1.241303
 C         4.053302         0.660184        -0.212144
 C         3.141424         1.193511        -1.271030
 O         1.688058         1.025584        -0.927983
 C         3.552408        -0.746527         0.226954
 O         2.256312        -1.019039        -0.149033
 H        -0.283659        -1.079762         0.454479
 H        -0.688863         0.539533         0.114004
 H        -0.043831        -0.553097        -1.204594
 H         1.704190         1.618560         1.911154
 H         1.745273        -0.166182         2.316597
 H         4.149041         0.395187         2.093030
 H         5.096814         0.825589        -0.432102
 H         3.282918         2.296708        -1.377004
 H         3.462721         0.684704        -2.186694
 H         4.273194        -1.540634         0.418859
