19
Iteration:  3038charge 0 multiplicity 1
 C        -0.037251        -0.355451        -0.112726
 C         1.434715         0.128331         0.053436
 C         2.048880         0.671622         1.352176
 C         3.502291         0.307814         1.273751
 C         4.078024         0.629350        -0.135891
 C         3.167654         1.549297        -1.052408
 O         1.806906         0.967584        -1.138068
 C         3.468144        -0.801216         0.272428
 O         2.181881        -1.022097        -0.111243
 H        -0.268634        -0.980362         0.790318
 H        -0.798832         0.406918        -0.072031
 H        -0.238385        -0.963987        -0.941418
 H         1.917261         1.698633         1.492462
 H         1.504650         0.078077         2.166072
 H         4.038976         0.359742         2.226885
 H         5.109809         0.850594        -0.402132
 H         2.929106         2.480975        -0.608718
 H         3.674697         1.632551        -2.001625
 H         4.168143        -1.622001         0.074470
