19
Iteration:   904charge 0 multiplicity 1
 C         0.068573        -0.221766        -0.125255
 C         1.459964         0.081477         0.036094
 C         1.991553         0.643976         1.464503
 C         3.503824         0.421651         1.285264
 C         3.992331         0.628425        -0.213153
 C         3.074186         1.235969        -1.219411
 O         1.758449         0.983638        -0.991619
 C         3.541958        -0.707982         0.295440
 O         2.228017        -0.985155        -0.124695
 H        -0.278471        -1.077820         0.521499
 H        -0.478244         0.634060         0.333170
 H        -0.370217        -0.358290        -1.167444
 H         1.730651         1.597456         1.635786
 H         1.560644         0.027629         2.244535
 H         4.204751         0.517040         2.116022
 H         5.091187         0.751952        -0.243529
 H         3.193413         2.315549        -1.360272
 H         3.576029         0.833259        -2.161089
 H         4.202183        -1.568973         0.211238
