19
Iteration:  1773
 C         0.091397        -0.295700        -0.029336
 C         1.488485         0.139605         0.004910
 C         1.967015         0.672173         1.513458
 C         3.455463         0.351500         1.373833
 C         3.969673         0.727747        -0.101798
 C         3.049106         1.061370        -1.335142
 O         1.755674         1.185570        -0.953716
 C         3.575890        -0.726342         0.286697
 O         2.258672        -0.980985        -0.295399
 H         0.222026        -1.051759         0.772035
 H        -0.668558         0.333854         0.256039
 H        -0.240593        -0.719051        -1.003365
 H         1.822460         1.800385         1.477537
 H         1.288500         0.313162         2.251278
 H         4.226857         0.121712         2.071620
 H         5.024657         0.818539        -0.060319
 H         3.174664         1.996096        -1.873283
 H         3.373281         0.263462        -2.118718
 H         4.187434        -1.672009         0.211253
