19
Iteration:  3069charge 0 multiplicity 1
 C        -0.007436        -0.223276        -0.047922
 C         1.540883         0.066552        -0.025764
 C         2.008337         0.777579         1.274710
 C         3.433890         0.341182         1.258998
 C         3.974045         0.614279        -0.120685
 C         3.097950         1.519211        -0.906322
 O         1.799300         0.918496        -1.115222
 C         3.481966        -0.813701         0.248410
 O         2.269586        -1.182809        -0.196858
 H        -0.008803        -0.959219         0.728035
 H        -0.401888         0.728206         0.295598
 H        -0.394965        -0.636959        -0.958600
 H         1.947020         1.851256         1.265366
 H         1.531297         0.481281         2.217865
 H         3.985638         0.399165         2.188765
 H         4.957675         0.865694        -0.321936
 H         2.885912         2.516978        -0.429765
 H         3.624801         1.829385        -1.771960
 H         4.221354        -1.616596         0.141955
