19
Iteration:  2237charge 0 multiplicity 1
 C        -0.003014        -0.235587         0.023792
 C         1.516832         0.115958         0.006611
 C         1.945047         0.678830         1.376438
 C         3.471516         0.459482         1.214832
 C         4.030093         0.596799        -0.222864
 C         3.176084         1.444816        -1.103840
 O         1.809823         0.957325        -1.052935
 C         3.492356        -0.760310         0.186963
 O         2.195200        -1.175188        -0.073684
 H        -0.238977        -0.962176         0.827760
 H        -0.636601         0.661354         0.118430
 H        -0.360270        -0.658787        -1.024830
 H         1.572698         1.713276         1.486704
 H         1.553700         0.057738         2.182880
 H         4.172646         0.722595         1.998372
 H         5.111397         0.649039        -0.272069
 H         3.248552         2.498082        -0.738159
 H         3.574092         1.460223        -2.084805
 H         4.181541        -1.635906         0.294301
