19
Iteration:  3273charge 0 multiplicity 1
 C         0.009934        -0.305539        -0.087754
 C         1.425211         0.167676        -0.040314
 C         2.065744         0.713514         1.282537
 C         3.507873         0.305542         1.292986
 C         4.089300         0.678772        -0.073361
 C         3.069130         1.535876        -0.961882
 O         1.808002         0.954068        -1.173984
 C         3.465921        -0.808108         0.241204
 O         2.143181        -1.125282        -0.105279
 H         0.094204        -1.297776         0.408105
 H        -0.723280         0.266848         0.525700
 H        -0.090218        -0.636310        -1.183061
 H         2.186138         1.892866         1.530545
 H         1.449105         0.207288         2.067512
 H         4.128073         0.216703         2.202012
 H         5.104135         0.629941        -0.357204
 H         3.176802         2.442808        -0.358503
 H         3.426656         1.835980        -1.940893
 H         4.231755        -1.647349         0.273941
