19
Iteration:  3811
 C         0.020621        -0.141108        -0.144904
 C         1.472337         0.102089         0.040920
 C         1.886968         0.525842         1.467407
 C         3.407539         0.402816         1.247429
 C         3.943189         0.682867        -0.104533
 C         3.202718         1.378003        -1.164656
 O         1.788798         1.006611        -0.999026
 C         3.605293        -0.736618         0.265404
 O         2.266564        -1.108602        -0.180678
 H        -0.325798        -0.910289         0.534287
 H        -0.648487         0.655820         0.176494
 H        -0.194413        -0.532715        -1.163492
 H         1.637940         1.515088         1.743709
 H         1.471257        -0.184724         2.173910
 H         4.118043         0.558102         2.058808
 H         5.157531         0.735124        -0.093855
 H         3.525644         2.460638        -1.219095
 H         3.487899         1.052278        -2.241606
 H         4.225527        -1.657224         0.170979
