19
Iteration:  2312charge 0 multiplicity 1
 C        -0.080416        -0.287498        -0.073673
 C         1.437747         0.042580         0.050884
 C         1.944951         0.681446         1.296529
 C         3.530053         0.455945         1.185279
 C         4.114661         0.573055        -0.219397
 C         3.205046         1.468523        -1.123837
 O         1.757378         1.001154        -1.007127
 C         3.538462        -0.751816         0.310456
 O         2.179433        -1.105688        -0.077070
 H        -0.152662        -1.273494         0.325562
 H        -0.533302         0.434669         0.559466
 H        -0.614320        -0.350477        -1.039786
 H         1.694143         1.699900         1.484872
 H         1.738315         0.087619         2.151791
 H         4.183411         0.612346         2.033068
 H         5.183169         0.554032        -0.340720
 H         3.495126         2.487331        -0.780742
 H         3.400246         1.535607        -2.182204
 H         4.133476        -1.677826         0.567507
