19
Iteration:  3926
 C        -0.013985        -0.133581        -0.157904
 C         1.497413         0.018200         0.027009
 C         1.918870         0.537676         1.488070
 C         3.427119         0.424920         1.339925
 C         4.053469         0.662373        -0.117061
 C         3.109874         1.298018        -1.250208
 O         1.771956         1.039771        -0.911517
 C         3.557068        -0.733318         0.342032
 O         2.312732        -1.079284        -0.302137
 H        -0.542544        -0.912770         0.334508
 H        -0.436198         0.840333         0.157727
 H        -0.134420        -0.382309        -1.276868
 H         1.705656         1.638356         1.609967
 H         1.389212        -0.090513         2.199824
 H         4.075750         0.586597         2.228438
 H         5.032499         0.775322        -0.099301
 H         3.280961         2.435562        -1.358835
 H         3.182161         1.040804        -2.277142
 H         4.303540        -1.567493         0.388596
