19
Iteration:  3895charge 0 multiplicity 1
 C        -0.040228        -0.210988        -0.107690
 C         1.505360         0.158158        -0.051592
 C         1.973575         0.564086         1.329341
 C         3.490824         0.379918         1.264559
 C         4.001794         0.673760        -0.088315
 C         3.131713         1.454659        -1.042645
 O         1.823723         0.992412        -1.062528
 C         3.552553        -0.746438         0.223418
 O         2.193256        -1.164402        -0.073313
 H        -0.277906        -0.824394         0.690948
 H        -0.659712         0.703081        -0.229853
 H        -0.214329        -0.845857        -1.084384
 H         1.877631         1.664250         1.681961
 H         1.397043        -0.118791         1.953003
 H         4.119443         0.531930         2.154871
 H         5.099046         0.785204        -0.082961
 H         3.183135         2.495808        -0.658329
 H         3.413364         1.347551        -2.093622
 H         4.210045        -1.641730         0.065395
