19
Iteration:  3887charge 0 multiplicity 1
 C         0.016634        -0.252282        -0.110427
 C         1.481334         0.139720        -0.021451
 C         2.006673         0.647423         1.305133
 C         3.466540         0.316856         1.312328
 C         4.003429         0.626388        -0.127723
 C         3.137936         1.556500        -1.020467
 O         1.806055         0.969506        -1.085157
 C         3.537353        -0.768494         0.251339
 O         2.180088        -1.157595        -0.111058
 H        -0.248185        -0.715966         0.855328
 H        -0.685593         0.599921        -0.197128
 H        -0.194596        -0.875174        -1.005081
 H         1.648124         1.695862         1.468202
 H         1.561030         0.083373         2.147016
 H         4.046786         0.515655         2.198487
 H         5.249960         0.718553        -0.277804
 H         3.006980         2.564848        -0.668772
 H         3.709908         1.556827        -2.025280
 H         4.133983        -1.707394         0.125724
