19
Iteration:   594charge 0 multiplicity 1
 C        -0.000535        -0.240132        -0.040493
 C         1.476062         0.103742         0.017195
 C         2.060152         0.789073         1.374149
 C         3.535556         0.391103         1.307831
 C         4.001172         0.630772        -0.108858
 C         3.099918         1.457631        -1.097906
 O         1.722900         0.866304        -1.162788
 C         3.518710        -0.703486         0.256764
 O         2.197685        -1.175380        -0.095826
 H        -0.142837        -1.130741         0.542329
 H        -0.662530         0.677615         0.192021
 H         0.017182        -0.610021        -1.120303
 H         1.952745         1.819470         1.294427
 H         1.569861         0.506754         2.326569
 H         4.210814         0.381041         2.156243
 H         5.065260         0.458970        -0.451928
 H         3.036364         2.501959        -0.758590
 H         3.564861         1.383680        -2.008781
 H         4.167149        -1.569199         0.009845
