19
Iteration:  1688
 C        -0.062878        -0.169179        -0.052237
 C         1.457945         0.086410        -0.026101
 C         2.085820         0.761163         1.278415
 C         3.550695         0.294159         1.296530
 C         4.020521         0.732696        -0.094325
 C         2.990036         1.454074        -0.994114
 O         1.787348         0.751446        -1.147406
 C         3.552741        -0.707633         0.201560
 O         2.215285        -1.123705        -0.055617
 H        -0.370707        -0.769332         0.804768
 H        -0.386539         0.849717         0.056883
 H        -0.343668        -0.692505        -1.027341
 H         2.242767         1.868403         1.403647
 H         1.515922         0.328595         2.158199
 H         4.298499         0.226256         2.041350
 H         5.045233         0.773332        -0.375876
 H         2.845466         2.488543        -0.632537
 H         3.432680         1.542113        -1.994015
 H         4.342609        -1.466593         0.043466
