19
Iteration:  3529charge 0 multiplicity 1
 C         0.070179        -0.270951        -0.230666
 C         1.458713         0.123429         0.059020
 C         1.939230         0.613996         1.458904
 C         3.489353         0.402461         1.304949
 C         3.965562         0.608888        -0.116001
 C         3.148588         1.303310        -1.200406
 O         1.767671         1.123240        -0.905910
 C         3.517903        -0.713729         0.316898
 O         2.240929        -1.081490        -0.248402
 H        -0.299388        -0.791861         0.639647
 H        -0.585871         0.635776        -0.299609
 H         0.027168        -1.015682        -1.108967
 H         1.656480         1.653009         1.569805
 H         1.435022        -0.095173         2.221088
 H         4.210639         0.332562         2.143497
 H         5.113261         0.659915        -0.358447
 H         3.184260         2.393500        -1.156620
 H         3.570164         0.857995        -2.166148
 H         4.279578        -1.474061         0.424043
