19
Iteration:    13charge 0 multiplicity 1
 C         0.035665        -0.355332        -0.030157
 C         1.467876         0.101600        -0.006146
 C         1.977751         0.614775         1.436224
 C         3.466392         0.436241         1.279801
 C         4.080082         0.613916        -0.181163
 C         3.171167         1.388383        -1.272372
 O         1.770958         1.063507        -1.149832
 C         3.484849        -0.736782         0.392498
 O         2.196580        -1.003385        -0.110311
 H        -0.134041        -1.075637         0.920234
 H        -0.486697         0.596500         0.242694
 H        -0.466155        -0.736757        -0.958121
 H         1.718273         1.590603         1.634433
 H         1.628972        -0.104849         2.234593
 H         3.980150         0.135596         2.220897
 H         5.199106         0.658759        -0.251323
 H         3.279482         2.513499        -1.241180
 H         3.481967         1.047270        -2.234989
 H         3.918920        -1.705755         0.711268
