19
Iteration:  1136charge 0 multiplicity 1
 C         0.085444        -0.255744        -0.058885
 C         1.547998         0.117172         0.068392
 C         1.959001         0.598216         1.512584
 C         3.391818         0.525616         1.285282
 C         3.940436         0.655793        -0.156133
 C         3.180763         1.295179        -1.241732
 O         1.795717         1.060280        -1.018381
 C         3.523544        -0.749118         0.175722
 O         2.161709        -1.082366        -0.155444
 H        -0.150944        -0.953325         0.849367
 H        -0.533548         0.715804        -0.124444
 H         0.034212        -0.887393        -0.964289
 H         1.537825         1.509191         1.829432
 H         1.766270        -0.220812         2.241501
 H         3.974144         0.429628         2.198485
 H         5.012191         0.802023        -0.301451
 H         3.581334         2.259690        -1.443551
 H         3.410116         0.636220        -2.171934
 H         4.301632        -1.548202         0.193897
