19
Iteration:  2214charge 0 multiplicity 1
 C         0.005363        -0.295582        -0.108635
 C         1.501016         0.067644         0.069950
 C         2.008217         0.726471         1.345157
 C         3.475261         0.381108         1.210147
 C         4.023512         0.524692        -0.242455
 C         3.086106         1.304638        -1.189375
 O         1.685310         1.211346        -0.891591
 C         3.568038        -0.793895         0.358239
 O         2.279572        -1.102107        -0.178754
 H        -0.368226        -0.819836         0.824838
 H        -0.623751         0.571041        -0.338146
 H        -0.194737        -1.006228        -0.991402
 H         1.668397         1.740490         1.328809
 H         1.741735         0.252937         2.280078
 H         4.097208         0.653754         2.127064
 H         5.096632         0.677679        -0.396878
 H         3.373091         2.370365        -1.018324
 H         3.445912         1.131177        -2.174316
 H         4.119750        -1.671491         0.717179
