19
Iteration:  3516
 C         0.054460        -0.338233        -0.145056
 C         1.472474         0.172891         0.005762
 C         1.979596         0.630136         1.402192
 C         3.427750         0.325131         1.328013
 C         4.023778         0.628903        -0.135600
 C         3.206223         1.404940        -1.118921
 O         1.746155         1.097261        -1.031753
 C         3.512090        -0.749965         0.225141
 O         2.207718        -1.073131        -0.115925
 H        -0.254358        -0.985829         0.672741
 H        -0.673292         0.486836        -0.391024
 H         0.085660        -0.894348        -1.139629
 H         1.745919         1.663663         1.702648
 H         1.545419         0.018390         2.313280
 H         3.998866         0.452791         2.284693
 H         5.111569         0.834336        -0.130402
 H         3.486988         2.373221        -1.077348
 H         3.265589         1.143759        -2.195440
 H         4.112837        -1.733365         0.134847
