19
Iteration:  3662charge 0 multiplicity 1
 C        -0.034486        -0.134929        -0.098189
 C         1.483164         0.054155        -0.072620
 C         2.009170         0.678946         1.347127
 C         3.531030         0.292127         1.264120
 C         4.058841         0.662346        -0.125439
 C         3.070873         1.550228        -0.915431
 O         1.845374         0.823632        -1.203612
 C         3.486428        -0.746197         0.225675
 O         2.195874        -1.094705        -0.073619
 H        -0.275289        -1.001087         0.674129
 H        -0.647976         0.780720        -0.070461
 H        -0.376902        -0.679805        -1.020858
 H         1.966994         1.777987         1.666494
 H         1.496637        -0.058076         2.077020
 H         4.034097         0.324579         2.208091
 H         5.144608         0.756650        -0.216533
 H         2.734439         2.368670        -0.330108
 H         3.560203         1.936890        -1.830917
 H         4.251674        -1.531959         0.314761
