19
Iteration:  3951charge 0 multiplicity 1
 C        -0.018029        -0.299057        -0.139830
 C         1.478679         0.102842         0.001452
 C         1.907707         0.588453         1.417671
 C         3.385212         0.396332         1.253387
 C         4.064281         0.670766        -0.061200
 C         3.143431         1.165728        -1.163900
 O         1.744197         1.297230        -0.899487
 C         3.611830        -0.772252         0.260086
 O         2.317679        -1.053210        -0.249132
 H        -0.313954        -1.226838         0.322822
 H        -0.623580         0.466010         0.373780
 H        -0.272786        -0.515306        -1.216887
 H         1.775005         1.699564         1.620187
 H         1.383628        -0.095866         2.108193
 H         3.907687         0.448194         2.187752
 H         5.221842         0.906982        -0.049963
 H         3.583036         2.032241        -1.648608
 H         3.104513         0.489006        -2.000670
 H         4.175892        -1.701593         0.419586
