19
Iteration:  2545charge 0 multiplicity 1
 C        -0.032916        -0.297777        -0.129704
 C         1.454844         0.122826         0.051422
 C         1.952098         0.539087         1.418960
 C         3.445401         0.462292         1.299921
 C         4.054484         0.580452        -0.184615
 C         3.125076         1.249189        -1.224180
 O         1.790178         1.262115        -0.922067
 C         3.516652        -0.712700         0.330512
 O         2.295026        -1.106102        -0.190477
 H        -0.156341        -1.429441         0.044342
 H        -0.671268         0.347420         0.504251
 H        -0.388745        -0.023722        -1.078620
 H         1.713009         1.576092         1.664240
 H         1.496039        -0.218715         2.088822
 H         4.127228         0.559315         2.136293
 H         5.046999         0.857967        -0.437471
 H         3.475771         2.153351        -1.679895
 H         3.416924         0.542970        -2.162374
 H         4.196217        -1.544954         0.527726
