19
Iteration:  3921charge 0 multiplicity 1
 C        -0.041411        -0.141642        -0.175225
 C         1.534962         0.026929         0.070715
 C         1.916087         0.536084         1.502845
 C         3.419579         0.412598         1.321393
 C         4.044614         0.673415        -0.137025
 C         3.126922         1.358254        -1.232925
 O         1.759796         1.025284        -0.965282
 C         3.579306        -0.706562         0.325642
 O         2.299458        -1.103026        -0.267239
 H        -0.615269        -0.959168         0.426724
 H        -0.396317         0.868121         0.019763
 H        -0.229076        -0.324825        -1.185726
 H         1.665712         1.560886         1.663316
 H         1.463677        -0.126921         2.281392
 H         4.014225         0.500822         2.213490
 H         5.282671         0.723957        -0.087500
 H         3.273924         2.418483        -1.203296
 H         3.358681         0.950747        -2.316125
 H         4.081884        -1.651729         0.351968
