19
Iteration:  1042charge 0 multiplicity 1
 C        -0.059584        -0.270175         0.022399
 C         1.432017         0.100389        -0.018573
 C         1.997706         0.701488         1.260706
 C         3.521975         0.451554         1.211429
 C         4.120876         0.571766        -0.180613
 C         3.228956         1.482387        -1.016781
 O         1.720487         0.921178        -1.141877
 C         3.533747        -0.763495         0.280991
 O         2.182175        -1.103890        -0.056520
 H        -0.232535        -1.051051         0.787616
 H        -0.611928         0.579994         0.149743
 H        -0.333892        -0.697564        -0.951298
 H         1.681233         1.800921         1.567742
 H         1.657823        -0.022482         2.063948
 H         4.047950         0.723688         2.131554
 H         5.232305         0.487568        -0.388958
 H         2.964461         2.520663        -0.606805
 H         3.592002         1.627790        -2.013033
 H         4.057148        -1.711356         0.262457
