19
Iteration:  1660charge 0 multiplicity 1
 C         0.019395        -0.269944         0.036441
 C         1.467607         0.080535        -0.002134
 C         1.936801         0.767916         1.340788
 C         3.456279         0.424853         1.218854
 C         4.031800         0.572093        -0.184484
 C         3.110708         1.473282        -1.025479
 O         1.778322         0.943128        -1.122889
 C         3.550157        -0.791879         0.267655
 O         2.241690        -1.181640        -0.159308
 H        -0.271396        -0.615041         1.019561
 H        -0.373228         0.806607         0.029964
 H        -0.304121        -0.965146        -0.735114
 H         1.849229         1.859879         1.321605
 H         1.397869         0.389426         2.200851
 H         4.380705         0.495878         1.879423
 H         5.113114         0.809964        -0.350161
 H         3.103365         2.459562        -0.515418
 H         3.454111         1.709469        -2.056913
 H         4.260507        -1.603440         0.442080
