19
Iteration:   639charge 0 multiplicity 1
 C        -0.094658        -0.265628         0.116427
 C         1.403762         0.081007         0.000131
 C         2.005094         0.724404         1.234967
 C         3.504109         0.440592         1.322443
 C         4.025185         0.585800        -0.173298
 C         3.230560         1.437947        -1.068201
 O         1.710320         0.983418        -1.165496
 C         3.542684        -0.749196         0.298880
 O         2.313740        -1.148082        -0.180528
 H        -0.349978        -0.687714         1.107535
 H        -0.568264         0.794920        -0.070054
 H        -0.245845        -0.983820        -0.716413
 H         1.663496         1.689762         1.199435
 H         1.528986         0.215148         2.137631
 H         4.056524         0.469250         2.268570
 H         5.087562         0.509462        -0.333086
 H         3.175853         2.497643        -0.756590
 H         3.451234         1.323676        -2.056213
 H         4.222142        -1.630361         0.518399
