19
Iteration:  3877charge 0 multiplicity 1
 C         0.033736        -0.273524        -0.087644
 C         1.454866         0.047443         0.025954
 C         1.985813         0.753587         1.346561
 C         3.471171         0.290722         1.280789
 C         3.998054         0.590829        -0.140395
 C         3.165467         1.585778        -0.955931
 O         1.799265         0.973574        -1.155968
 C         3.478640        -0.806533         0.266002
 O         2.211231        -1.115798        -0.170695
 H        -0.274095        -0.839672         0.848338
 H        -0.531351         0.655515        -0.211114
 H        -0.069650        -1.025839        -0.853171
 H         1.793498         1.818150         1.238531
 H         1.553004         0.327565         2.269198
 H         4.058827         0.226896         2.188834
 H         5.199998         0.663764        -0.406407
 H         3.064248         2.589532        -0.529055
 H         3.518419         1.775605        -2.038316
 H         4.269560        -1.555857         0.437530
