19
Iteration:  3948charge 0 multiplicity 1
 C        -0.020684        -0.264884        -0.147224
 C         1.500629         0.110923         0.018211
 C         1.905599         0.585526         1.399295
 C         3.386632         0.399364         1.241415
 C         4.036231         0.668054        -0.071769
 C         3.132979         1.153508        -1.141592
 O         1.737043         1.270040        -0.884634
 C         3.622609        -0.758709         0.269093
 O         2.333445        -1.064617        -0.259519
 H        -0.286749        -1.181532         0.313898
 H        -0.596210         0.527330         0.369432
 H        -0.293788        -0.514411        -1.258761
 H         1.714137         1.694569         1.562800
 H         1.461538        -0.095556         2.131431
 H         3.933752         0.452284         2.199318
 H         4.990314         0.888589        -0.083445
 H         3.609586         2.112951        -1.598787
 H         3.224684         0.485065        -2.009267
 H         4.155948        -1.742417         0.421507
