19
Iteration:  4264charge 0 multiplicity 1
 C        -0.037381        -0.122226        -0.100905
 C         1.459715         0.007947        -0.000486
 C         2.025352         0.676354         1.311627
 C         3.520381         0.271970         1.292996
 C         3.998680         0.676170        -0.074408
 C         2.977227         1.548515        -0.994761
 O         1.794960         0.852078        -1.167617
 C         3.620528        -0.767892         0.303546
 O         2.256800        -1.159620        -0.185745
 H        -0.397444        -0.632505         0.857240
 H        -0.358642         0.916465        -0.111157
 H        -0.384855        -0.518348        -1.059700
 H         2.089848         1.812464         1.174439
 H         1.402705         0.489625         2.172643
 H         4.204051         0.250709         2.180436
 H         5.139827         0.976566         0.082900
 H         2.666587         2.521365        -0.341251
 H         3.541574         1.847119        -1.913496
 H         4.300787        -1.625467         0.299047
