19
Iteration:   178charge 0 multiplicity 1
 C        -0.076375        -0.247789        -0.022815
 C         1.485320         0.077708        -0.026373
 C         2.038118         0.719834         1.362663
 C         3.508375         0.427960         1.246407
 C         3.942538         0.643621        -0.130695
 C         3.109103         1.408719        -1.041785
 O         1.821055         0.928382        -1.152851
 C         3.557548        -0.770513         0.224089
 O         2.211746        -1.129928        -0.085555
 H        -0.114379        -1.074935         0.751460
 H        -0.623328         0.624589         0.285327
 H        -0.322945        -0.575863        -1.011544
 H         1.696640         1.759166         1.416099
 H         1.571661         0.215617         2.322210
 H         4.227146         0.677542         2.003166
 H         5.004312         0.899954        -0.242380
 H         3.234957         2.451104        -0.693890
 H         3.614746         1.337504        -2.017896
 H         4.215088        -1.586246         0.206619
