19
Iteration:   184charge 0 multiplicity 1
 C        -0.068102        -0.242322        -0.012068
 C         1.527054         0.088663         0.012430
 C         1.953549         0.654347         1.333177
 C         3.504789         0.450501         1.194108
 C         3.994847         0.641720        -0.151426
 C         3.158252         1.441542        -1.053763
 O         1.798341         0.913173        -1.132273
 C         3.555752        -0.734771         0.185776
 O         2.186452        -1.115818        -0.014470
 H        -0.148465        -1.093227         0.628132
 H        -0.730337         0.610669         0.255643
 H        -0.309234        -0.558998        -1.054411
 H         1.695176         1.757299         1.440712
 H         1.657389         0.055910         2.137154
 H         4.166033         0.578299         2.087901
 H         5.093681         0.749073        -0.192908
 H         3.236427         2.489740        -0.694037
 H         3.647722         1.315967        -2.056783
 H         4.224559        -1.637162         0.243209
