19
Iteration:   558charge 0 multiplicity 1
 C        -0.029789        -0.156499        -0.126036
 C         1.427101         0.069032         0.097095
 C         1.973277         0.638069         1.382628
 C         3.511731         0.490966         1.224921
 C         4.048063         0.636596        -0.229055
 C         3.115106         1.315534        -1.195712
 O         1.727366         0.968448        -0.977147
 C         3.582596        -0.743145         0.331625
 O         2.290846        -1.133503        -0.077909
 H        -0.435004        -1.140366         0.250635
 H        -0.771295         0.569966         0.100588
 H        -0.050966        -0.234888        -1.236487
 H         1.657193         1.713760         1.525125
 H         1.643419         0.090331         2.189081
 H         4.127199         0.615100         2.134801
 H         5.139371         0.601078        -0.387996
 H         3.130772         2.401368        -1.118664
 H         3.222188         1.141367        -2.272178
 H         4.316412        -1.501432         0.425628
