19
Iteration:  3450charge 0 multiplicity 1
 C        -0.082206        -0.099163        -0.071193
 C         1.477897         0.035126        -0.097747
 C         2.036431         0.632065         1.384224
 C         3.445574         0.275446         1.339724
 C         4.032105         0.666722        -0.149678
 C         3.069938         1.524826        -0.989482
 O         1.818421         0.889878        -1.176038
 C         3.577246        -0.740561         0.264941
 O         2.266108        -1.172030        -0.118107
 H        -0.340132        -1.058274         0.494487
 H        -0.538706         0.796040         0.402348
 H        -0.541062        -0.171149        -1.054685
 H         1.874585         1.747388         1.349694
 H         1.382928         0.128387         2.176707
 H         4.114695         0.376339         2.183642
 H         5.011024         1.018258        -0.205094
 H         2.857746         2.677840        -0.572713
 H         3.672378         1.690322        -1.905191
 H         4.280418        -1.613374         0.209008
