19
Iteration:  2598charge 0 multiplicity 1
 C        -0.020678        -0.282942        -0.109056
 C         1.490832         0.048902        -0.013982
 C         1.995238         0.667482         1.362101
 C         3.447116         0.405293         1.316556
 C         4.028756         0.630986        -0.036976
 C         3.111279         1.227672        -1.210384
 O         1.680901         1.224839        -0.864841
 C         3.580057        -0.794195         0.273597
 O         2.303452        -1.077605        -0.309661
 H        -0.349902        -0.855260         0.814200
 H        -0.532224         0.694197        -0.135483
 H        -0.249082        -0.842975        -0.967292
 H         1.898198         1.796284         1.436868
 H         1.494887         0.209415         2.241810
 H         4.170125         0.354298         2.130150
 H         5.081086         0.813386        -0.197153
 H         3.293164         2.272219        -1.285769
 H         3.345940         0.599907        -2.018670
 H         4.310760        -1.603172         0.339277
