19
Iteration:   230charge 0 multiplicity 1
 C         0.009685        -0.252743        -0.133413
 C         1.475120         0.084364         0.075031
 C         2.009351         0.681734         1.313209
 C         3.495026         0.449616         1.286086
 C         3.989481         0.619287        -0.109122
 C         3.095977         1.270791        -1.120181
 O         1.648546         1.024000        -1.004774
 C         3.592729        -0.789749         0.249607
 O         2.265735        -1.058243        -0.125398
 H        -0.299712        -1.075467         0.435467
 H        -0.335238         0.682901         0.049319
 H         0.029975        -0.316645        -1.152305
 H         1.701564         1.802396         1.292325
 H         1.693300         0.232249         2.226438
 H         4.116882         0.739781         2.126914
 H         5.093336         0.758714        -0.188385
 H         3.395184         2.277481        -0.936076
 H         3.498023         0.907313        -2.129953
 H         4.267597        -1.597564         0.176451
