19
Iteration:  1548charge 0 multiplicity 1
 C         0.088067        -0.318491        -0.032117
 C         1.461196         0.091975         0.117795
 C         1.894875         0.611738         1.450110
 C         3.376395         0.464075         1.243402
 C         4.085219         0.627295        -0.241955
 C         3.196702         1.240513        -1.281059
 O         1.782849         1.091708        -0.949562
 C         3.554741        -0.678759         0.315695
 O         2.202538        -1.017243        -0.214246
 H        -0.241435        -1.146875         0.648974
 H        -0.601783         0.486487         0.167737
 H        -0.271712        -0.696707        -1.049245
 H         1.524744         1.528027         1.723305
 H         1.807167        -0.056279         2.339348
 H         4.027926         0.653101         2.048892
 H         5.142029         0.810463        -0.135770
 H         3.508373         2.311581        -1.490705
 H         3.141880         0.700142        -2.252458
 H         4.116278        -1.606950         0.307112
