19
Iteration:  4978
 C         0.054319        -0.165196        -0.151177
 C         1.529823         0.059311         0.067824
 C         1.911620         0.494798         1.551906
 C         3.375674         0.305676         1.294199
 C         3.980542         0.736812        -0.146112
 C         3.120439         1.201684        -1.315273
 O         1.755779         1.204844        -0.851435
 C         3.590218        -0.714145         0.258504
 O         2.293064        -1.031641        -0.261896
 H        -0.413077        -0.934874         0.546538
 H        -0.407729         0.852478        -0.199853
 H         0.032636        -0.706686        -1.036923
 H         1.542390         1.431817         1.818737
 H         1.586521        -0.360830         2.214735
 H         4.123236         0.210403         2.103522
 H         5.120787         1.141717        -0.130019
 H         3.308652         2.164189        -1.643486
 H         3.173663         0.633379        -2.226764
 H         4.205902        -1.593063         0.202449
