19
Iteration:  2493charge 0 multiplicity 1
 C        -0.042231        -0.174297        -0.059283
 C         1.508144         0.086971        -0.008890
 C         2.014103         0.638587         1.343864
 C         3.501623         0.330906         1.340904
 C         4.060888         0.644169        -0.086741
 C         3.119804         1.477973        -1.126788
 O         1.763717         0.934286        -1.215283
 C         3.523388        -0.721451         0.295577
 O         2.218674        -1.142570        -0.089416
 H        -0.193765        -1.093243         0.685540
 H        -0.547211         0.636529         0.513113
 H        -0.583698        -0.276093        -0.997463
 H         1.636381         1.635025         1.519244
 H         1.583934        -0.048624         2.121651
 H         4.080589         0.282412         2.222704
 H         5.068921         0.772833        -0.389167
 H         2.956115         2.585264        -0.775522
 H         3.594034         1.587902        -2.072695
 H         4.265830        -1.524475         0.205575
