19
Iteration:  3108charge 0 multiplicity 1
 C        -0.005762        -0.143023        -0.105743
 C         1.414333         0.094659        -0.043661
 C         1.984372         0.562684         1.452957
 C         3.445179         0.353372         1.299048
 C         3.989252         0.694951        -0.096046
 C         3.146932         1.374741        -1.108263
 O         1.790601         0.988223        -1.057791
 C         3.584159        -0.726942         0.231250
 O         2.300569        -1.105548        -0.157692
 H        -0.410350        -1.053162         0.350833
 H        -0.670501         0.665832         0.315443
 H        -0.399847        -0.434807        -1.194978
 H         1.492844         1.540466         1.876664
 H         1.634063        -0.195078         2.208026
 H         4.094888         0.608993         2.133925
 H         5.108918         0.874305        -0.210661
 H         3.279921         2.462678        -1.012289
 H         3.344752         1.141734        -2.222264
 H         4.176125        -1.634368         0.195522
