19
Iteration:  3717
 C        -0.028931        -0.249814        -0.100670
 C         1.481247         0.076362        -0.010590
 C         1.945570         0.636521         1.366262
 C         3.460945         0.377893         1.279736
 C         4.025253         0.591257        -0.090668
 C         3.179885         1.337069        -1.123392
 O         1.733408         1.125317        -0.972387
 C         3.599725        -0.776409         0.271429
 O         2.244929        -1.069543        -0.240275
 H        -0.529253        -0.970202         0.732904
 H        -0.667950         0.657574        -0.169460
 H        -0.024546        -0.831644        -1.021211
 H         1.671425         1.755054         1.575460
 H         1.454459         0.034685         2.213376
 H         4.034695         0.364431         2.227083
 H         5.049354         0.791753        -0.119523
 H         3.242502         2.472335        -0.922526
 H         3.531264         1.097047        -2.153505
 H         4.425989        -1.549570         0.478925
