19
Iteration:   541
 C         0.010210        -0.295727        -0.048848
 C         1.535968         0.038598         0.031002
 C         1.922957         0.664723         1.412133
 C         3.424610         0.588824         1.236926
 C         3.968247         0.601605        -0.206080
 C         3.193502         1.284972        -1.230508
 O         1.793422         1.099142        -0.957775
 C         3.537014        -0.713734         0.283714
 O         2.205813        -1.178678        -0.153688
 H        -0.092947        -1.054610         0.672219
 H        -0.377322         0.660323         0.416138
 H        -0.398357        -0.363734        -1.077855
 H         1.465929         1.619722         1.541707
 H         1.744264        -0.090613         2.324360
 H         4.178534         0.749672         2.006187
 H         5.060360         0.767549        -0.243474
 H         3.459040         2.384597        -1.248241
 H         3.531832         0.833178        -2.218663
 H         4.133130        -1.638599         0.418469
