19
Iteration:   806
 C        -0.017329        -0.202444        -0.092842
 C         1.442841         0.118812         0.022735
 C         1.975969         0.701151         1.276010
 C         3.561279         0.476935         1.240811
 C         4.010510         0.584087        -0.230992
 C         3.112679         1.412919        -1.039498
 O         1.762262         0.959093        -1.031514
 C         3.552356        -0.735399         0.232886
 O         2.213692        -1.204910         0.005131
 H        -0.477748        -0.835025         0.748471
 H        -0.592426         0.697403        -0.158022
 H        -0.266133        -0.852310        -0.992369
 H         1.791641         1.798015         1.394652
 H         1.641219         0.149324         2.169203
 H         4.327854         0.628402         1.995290
 H         5.113434         0.466145        -0.461977
 H         3.290531         2.485171        -0.691449
 H         3.383186         1.286325        -2.073288
 H         4.316746        -1.542470         0.134761
