19
Iteration:  4714charge 0 multiplicity 1
 C        -0.067635        -0.295168        -0.045494
 C         1.444796         0.083382        -0.081149
 C         1.945438         0.579379         1.348639
 C         3.430582         0.360114         1.234551
 C         4.072561         0.579683        -0.136027
 C         3.166449         1.438391        -1.117961
 O         1.756675         1.129979        -0.955745
 C         3.585440        -0.762169         0.313478
 O         2.298440        -1.073434        -0.211921
 H        -0.283613        -0.964925         0.732408
 H        -0.388572         0.677228         0.219784
 H        -0.624960        -0.618909        -0.930918
 H         1.762923         1.590988         1.404918
 H         1.508173         0.056134         2.232012
 H         4.036752         0.370241         2.161074
 H         5.065911         0.805936        -0.241678
 H         3.358653         2.494017        -0.803210
 H         3.358161         1.184902        -2.134396
 H         4.201327        -1.675965         0.393759
