19
Iteration:  4689
 C         0.055918        -0.329247        -0.031608
 C         1.422122         0.119774         0.052540
 C         1.997035         0.741150         1.353068
 C         3.477230         0.365440         1.237826
 C         4.036177         0.573093        -0.070223
 C         3.156743         1.541678        -0.998698
 O         1.794426         0.970775        -1.082947
 C         3.493297        -0.786171         0.195744
 O         2.181156        -1.126781        -0.230670
 H         0.065048        -1.230029         0.523732
 H        -0.652929         0.469754         0.285048
 H        -0.234048        -0.506215        -1.154729
 H         1.690987         1.870225         1.247182
 H         1.538116         0.427946         2.285220
 H         4.131919         0.191746         2.113803
 H         5.142126         0.671455        -0.120808
 H         3.193681         2.555154        -0.436476
 H         3.502205         1.568431        -2.025972
 H         4.154514        -1.609876        -0.019176
