19
Iteration:   274
 C         0.031418        -0.351251         0.086720
 C         1.426278         0.080484         0.020760
 C         1.908651         0.642657         1.369808
 C         3.370587         0.465724         1.262114
 C         4.051916         0.582252        -0.124056
 C         3.251908         1.250864        -1.222656
 O         1.784322         1.149049        -1.017032
 C         3.560604        -0.729140         0.285744
 O         2.222539        -1.009734        -0.242607
 H        -0.060942        -0.907383         1.021711
 H        -0.581752         0.485590        -0.028677
 H        -0.100863        -0.948889        -0.756899
 H         1.470367         1.660583         1.661619
 H         1.423538        -0.077268         1.984512
 H         4.001894         0.778135         2.074589
 H         5.133025         0.792060        -0.122010
 H         3.444175         2.318169        -1.323141
 H         3.594413         0.603289        -2.157137
 H         4.154064        -1.597763         0.203968
