19
Iteration:   377charge 0 multiplicity 1
 C         0.046231        -0.322701         0.106851
 C         1.442597         0.158125        -0.081192
 C         1.959853         0.786503         1.287082
 C         3.377218         0.395240         1.219040
 C         4.045920         0.563239        -0.158824
 C         3.147163         1.399335        -1.032881
 O         1.805464         0.959021        -1.126466
 C         3.522406        -0.778622         0.339876
 O         2.246313        -1.088815        -0.189016
 H         0.061834        -1.089007         0.831924
 H        -0.399658         0.608292         0.500210
 H        -0.381107        -0.680944        -0.856355
 H         1.603713         1.789173         1.341202
 H         1.370983         0.146320         2.048502
 H         3.998246         0.378133         2.115786
 H         5.117203         0.724753        -0.327327
 H         3.261700         2.420588        -0.696879
 H         3.579704         1.479383        -2.113184
 H         4.266996        -1.491076         0.582978
