19
Iteration:  4799charge 0 multiplicity 1
 C         0.087390        -0.322309        -0.093969
 C         1.541426         0.101139         0.011983
 C         1.914453         0.584198         1.421713
 C         3.419415         0.407498         1.283519
 C         4.026156         0.574265        -0.173246
 C         3.137581         1.334922        -1.190781
 O         1.761866         1.206925        -0.841985
 C         3.537698        -0.816123         0.293763
 O         2.227484        -1.032379        -0.303403
 H        -0.235816        -0.987102         0.595636
 H        -0.689924         0.457199        -0.062178
 H        -0.007331        -0.810756        -1.186518
 H         1.530333         1.612902         1.546018
 H         1.690436         0.042353         2.349368
 H         4.133306         0.643442         2.107051
 H         4.991535         0.760680        -0.256689
 H         3.365991         2.435044        -1.162442
 H         3.244241         1.124926        -2.255411
 H         3.985283        -1.801935         0.565062
