19
Iteration:  2040
 C        -0.010964        -0.120672         0.006092
 C         1.468439         0.064565         0.028624
 C         2.008771         0.621774         1.335657
 C         3.474881         0.389713         1.265662
 C         4.010529         0.707898        -0.159550
 C         3.102178         1.399496        -1.192598
 O         1.739018         0.965270        -1.060541
 C         3.604256        -0.758342         0.274164
 O         2.237544        -1.194980        -0.126722
 H        -0.456277        -0.641986         0.914427
 H        -0.402142         0.892992         0.125282
 H        -0.356869        -0.563084        -0.915661
 H         1.611540         1.635110         1.283713
 H         1.561912         0.059607         2.211146
 H         4.115642         0.320662         2.158886
 H         5.076396         0.895474        -0.277158
 H         3.333565         2.392803        -0.867114
 H         3.467475         1.192730        -2.219004
 H         4.331645        -1.543747         0.429660
