19
Iteration:  1151
 C        -0.010389        -0.303318        -0.080552
 C         1.403051         0.185488         0.079586
 C         1.974073         0.650607         1.420904
 C         3.489123         0.346336         1.262572
 C         4.036591         0.684040        -0.121378
 C         3.164722         1.237967        -1.277767
 O         1.770561         1.083319        -0.939263
 C         3.516223        -0.692009         0.283546
 O         2.263147        -1.055671        -0.199387
 H        -0.342356        -0.898931         0.760645
 H        -0.727882         0.458546        -0.163905
 H        -0.010895        -0.954665        -0.986843
 H         1.697810         1.720691         1.722941
 H         1.567451        -0.006259         2.122758
 H         4.240884         0.380839         2.071136
 H         5.143933         0.736909        -0.257049
 H         3.166647         2.323710        -1.479514
 H         3.481492         0.644366        -2.189531
 H         4.167940        -1.522339         0.366312
