19
Iteration:  4547
 C        -0.029921        -0.286565        -0.141907
 C         1.439540         0.055801         0.048706
 C         1.926516         0.527773         1.372299
 C         3.451372         0.457605         1.255813
 C         4.047711         0.613878        -0.120289
 C         3.162583         1.275645        -1.221655
 O         1.774526         1.259402        -0.795407
 C         3.565630        -0.743614         0.276996
 O         2.313768        -1.077148        -0.248635
 H        -0.282216        -1.099210         0.500830
 H        -0.810369         0.478728        -0.144027
 H        -0.145061        -0.702143        -1.143242
 H         1.368469         1.496804         1.572992
 H         1.661594        -0.082361         2.186898
 H         4.016222         0.662733         2.118048
 H         5.223198         0.678705        -0.348408
 H         3.457832         2.339662        -1.379964
 H         3.163367         0.864082        -2.254063
 H         3.984233        -1.722697         0.511391
