19
Iteration:    10charge 0 multiplicity 1
 C         0.023019        -0.330699        -0.044172
 C         1.495530         0.092864         0.000511
 C         1.979267         0.624871         1.402661
 C         3.472400         0.436740         1.269658
 C         4.060399         0.627297        -0.193367
 C         3.136449         1.378848        -1.223785
 O         1.772255         1.034602        -1.105937
 C         3.510723        -0.742629         0.366241
 O         2.208977        -1.022410        -0.111879
 H        -0.219191        -0.913362         0.720395
 H        -0.457702         0.578928         0.193219
 H        -0.401775        -0.711513        -0.918539
 H         1.715108         1.763381         1.627848
 H         1.601626         0.097851         2.264383
 H         3.929228         0.202613         2.183290
 H         5.108079         0.630433        -0.161223
 H         3.263969         2.423729        -1.175686
 H         3.528200         1.012745        -2.238862
 H         3.906489        -1.696597         0.599626
