19
Iteration:   934
 C        -0.043718        -0.289579        -0.152023
 C         1.419017         0.180105         0.026557
 C         2.023667         0.740003         1.405594
 C         3.460173         0.422324         1.255291
 C         4.006502         0.627462        -0.154001
 C         3.095071         1.193165        -1.245143
 O         1.717283         1.174739        -0.892101
 C         3.627678        -0.777656         0.325220
 O         2.309613        -1.166875        -0.181906
 H        -0.185804        -1.097364         0.681515
 H        -0.706539         0.476166         0.198109
 H        -0.418640        -0.558001        -1.175749
 H         1.861828         1.872186         1.592596
 H         1.601084         0.243027         2.334029
 H         4.175624         0.488056         2.073567
 H         5.101681         0.889861         0.022130
 H         3.157600         2.202198        -1.604582
 H         3.374220         0.473161        -2.119595
 H         4.353409        -1.634042         0.194961
