19
Iteration:  3212
 C        -0.051753        -0.196606        -0.133041
 C         1.434922         0.045452         0.023572
 C         2.017625         0.536368         1.473878
 C         3.483452         0.326793         1.310549
 C         3.952810         0.715609        -0.072039
 C         3.175085         1.373611        -1.146413
 O         1.727654         1.080041        -1.081457
 C         3.621835        -0.696325         0.254478
 O         2.275931        -1.101961        -0.187313
 H        -0.525679        -0.808195         0.690751
 H        -0.488192         0.783672        -0.216462
 H        -0.323570        -0.651473        -1.050184
 H         1.774195         1.498561         1.735446
 H         1.479127        -0.138144         2.155162
 H         4.138269         0.295081         2.238603
 H         5.044897         0.874513        -0.218010
 H         3.369550         2.528765        -1.189941
 H         3.479544         0.988719        -2.152798
 H         4.193149        -1.651663         0.323038
