19
Iteration:   445charge 0 multiplicity 1
 C        -0.035678        -0.254209        -0.122796
 C         1.446499        -0.018069         0.068065
 C         2.016293         0.597332         1.447872
 C         3.502527         0.588614         1.162157
 C         3.964983         0.564998        -0.238742
 C         3.194347         1.452806        -1.179306
 O         1.805542         1.038312        -1.046335
 C         3.513523        -0.737003         0.374113
 O         2.188289        -1.183059        -0.066448
 H        -0.398576        -0.818844         0.721285
 H        -0.489129         0.761861        -0.252009
 H        -0.129147        -0.645402        -1.145926
 H         1.622280         1.538001         1.832705
 H         1.793044        -0.237268         2.124029
 H         4.082408         0.889715         2.018692
 H         5.022116         0.779302        -0.454938
 H         3.399729         2.487896        -0.884188
 H         3.570446         1.406612        -2.243568
 H         4.198080        -1.559638         0.502191
