19
Iteration:  3666
 C        -0.050077        -0.123713        -0.113294
 C         1.445730         0.051392        -0.033046
 C         2.001086         0.655518         1.349378
 C         3.543026         0.314330         1.280389
 C         4.077334         0.687645        -0.131227
 C         3.064470         1.542342        -0.900418
 O         1.855683         0.835095        -1.232512
 C         3.500024        -0.754765         0.222074
 O         2.196720        -1.120722        -0.079252
 H        -0.252799        -0.829075         0.640796
 H        -0.619013         0.782856        -0.006753
 H        -0.322613        -0.713659        -0.936120
 H         1.942268         1.698831         1.645708
 H         1.521224         0.016935         2.004977
 H         4.107947         0.317217         2.259062
 H         5.109006         0.853107        -0.296374
 H         2.665743         2.413707        -0.355978
 H         3.624694         1.799047        -1.794889
 H         4.214114        -1.624904         0.280069
