19
Iteration:   451
 C        -0.031467        -0.239535        -0.153490
 C         1.422252        -0.038648         0.054522
 C         2.001694         0.600000         1.433768
 C         3.478706         0.587415         1.173128
 C         3.957459         0.579841        -0.234432
 C         3.191838         1.390823        -1.176894
 O         1.819349         1.092347        -1.032217
 C         3.514142        -0.732221         0.316969
 O         2.227758        -1.156611        -0.027598
 H        -0.415082        -0.859611         0.685819
 H        -0.426362         0.757222        -0.085779
 H        -0.216497        -0.948973        -1.004272
 H         1.522326         1.509781         1.812640
 H         1.801491        -0.215728         2.294748
 H         4.133128         0.831654         2.029588
 H         5.028396         0.641466        -0.522774
 H         3.468879         2.429652        -0.779090
 H         3.522764         1.286548        -2.279431
 H         4.215286        -1.549712         0.391325
