19
Iteration:  4593
 C         0.010187        -0.338834        -0.089567
 C         1.464936         0.170683        -0.013477
 C         2.012990         0.562404         1.391900
 C         3.519692         0.303438         1.331250
 C         3.985938         0.651449        -0.031416
 C         3.114662         1.246457        -1.134421
 O         1.715439         1.211738        -1.002559
 C         3.578737        -0.743020         0.284684
 O         2.233125        -0.973095        -0.271310
 H        -0.223208        -0.891680         0.746317
 H        -0.725018         0.450681        -0.273537
 H        -0.182626        -0.963751        -1.031285
 H         1.795849         1.554475         1.634348
 H         1.463921        -0.019556         2.160418
 H         4.101198         0.017563         2.264987
 H         4.981051         1.051830        -0.167916
 H         3.403774         2.260244        -1.402969
 H         3.455557         0.680540        -2.039718
 H         4.310617        -1.549809         0.172636
