19
Iteration:  3375charge 0 multiplicity 1
 C         0.044263        -0.372680        -0.175150
 C         1.400412         0.115496        -0.005273
 C         1.992885         0.618025         1.396970
 C         3.417108         0.350680         1.284458
 C         4.053843         0.679712        -0.051279
 C         3.131697         1.203200        -1.188701
 O         1.727678         1.279868        -0.822050
 C         3.590729        -0.792241         0.257801
 O         2.249855        -0.993013        -0.297782
 H        -0.182132        -0.852240         0.846225
 H        -0.586589         0.531332        -0.344562
 H        -0.136846        -1.030204        -1.014821
 H         1.672789         1.603568         1.564197
 H         1.560430         0.053499         2.279157
 H         4.081524         0.356901         2.119396
 H         5.135523         0.808801        -0.116717
 H         3.539413         2.129389        -1.454592
 H         3.285204         0.480393        -2.038517
 H         4.221710        -1.655806         0.401458
