19
Iteration:  2722
 C        -0.028258        -0.308845        -0.057328
 C         1.419830         0.158660         0.032842
 C         1.936559         0.539329         1.490407
 C         3.451763         0.375237         1.249318
 C         4.062868         0.685529        -0.115145
 C         3.216642         1.287406        -1.225707
 O         1.777842         1.118535        -1.077070
 C         3.570082        -0.702855         0.290393
 O         2.213547        -1.055476        -0.154990
 H        -0.183066        -1.292118         0.292759
 H        -0.676627         0.399973         0.482380
 H        -0.210262        -0.286886        -1.208350
 H         1.579520         1.509651         1.829254
 H         1.319716        -0.088158         2.115199
 H         4.012750         0.402758         2.177722
 H         5.158685         0.702407        -0.263550
 H         3.522998         2.460361        -1.298901
 H         3.625266         0.935731        -2.210337
 H         4.239400        -1.533391         0.367286
