19
Iteration:  4465charge 0 multiplicity 1
 C         0.010934        -0.344657         0.064258
 C         1.474607         0.112620        -0.084938
 C         1.939539         0.717482         1.249019
 C         3.410709         0.367038         1.252713
 C         4.032164         0.542694        -0.203002
 C         3.189343         1.612838        -0.894400
 O         1.794896         1.005055        -1.141353
 C         3.522890        -0.841905         0.292263
 O         2.227535        -1.125390        -0.186891
 H        -0.131576        -1.125568         0.806292
 H        -0.621280         0.511174         0.353166
 H        -0.187520        -0.696785        -1.007266
 H         1.930628         1.754264         1.273275
 H         1.424170         0.265999         2.156967
 H         3.998530         0.649984         2.202327
 H         5.008460         0.640740        -0.188014
 H         3.290184         2.402466        -0.161662
 H         3.520678         1.844960        -1.876724
 H         4.250831        -1.694598         0.119192
