19
Iteration:   358charge 0 multiplicity 1
 C        -0.029471        -0.276686        -0.036948
 C         1.467102         0.075831         0.050997
 C         1.944477         0.653680         1.362956
 C         3.495581         0.531902         1.273440
 C         4.013878         0.576857        -0.190437
 C         3.214884         1.409111        -1.130658
 O         1.768904         1.020232        -1.146606
 C         3.544353        -0.829199         0.286116
 O         2.217566        -1.098770        -0.090832
 H        -0.197150        -1.156548         0.648480
 H        -0.766657         0.539543         0.372542
 H        -0.228621        -0.786261        -1.052013
 H         1.619237         1.757026         1.424799
 H         1.554498         0.130891         2.240290
 H         4.122253         0.860927         2.094114
 H         5.128517         0.617710        -0.195483
 H         3.274655         2.479045        -0.744034
 H         3.667234         1.507457        -2.099437
 H         4.038455        -1.767313         0.267205
