19
Iteration:  3608charge 0 multiplicity 1
 C        -0.031542        -0.289683        -0.163704
 C         1.440740         0.160077         0.040873
 C         1.909022         0.655995         1.388716
 C         3.479518         0.367966         1.298314
 C         4.051556         0.565328        -0.109390
 C         3.155620         1.302045        -1.146183
 O         1.774219         1.110622        -0.963468
 C         3.547489        -0.757752         0.278159
 O         2.314307        -1.047010        -0.223692
 H        -0.112555        -1.191651         0.537640
 H        -0.789343         0.391093         0.241905
 H        -0.295351        -0.436398        -1.200685
 H         1.658485         1.713086         1.684649
 H         1.378621         0.063522         2.173287
 H         3.877152         0.407088         2.274409
 H         5.067620         0.902578        -0.214530
 H         3.301468         2.416914        -1.276652
 H         3.532234         0.927155        -2.133864
 H         4.146678        -1.628591         0.413995
