19
Iteration:  4230
 C         0.026257        -0.304124        -0.071228
 C         1.463320         0.117148        -0.007948
 C         1.932993         0.664941         1.313453
 C         3.431504         0.396887         1.245327
 C         4.058968         0.601018        -0.129809
 C         3.183341         1.501270        -1.017032
 O         1.843411         0.994559        -1.047627
 C         3.505406        -0.766830         0.299297
 O         2.189395        -1.129947        -0.203618
 H        -0.284900        -0.749833         0.865668
 H        -0.641336         0.514946        -0.158830
 H        -0.169095        -1.073796        -0.839924
 H         1.679728         1.757493         1.396027
 H         1.511391         0.164650         2.148489
 H         4.132332         0.309751         2.099220
 H         5.144713         0.692799        -0.240732
 H         3.072005         2.626803        -0.620099
 H         3.437812         1.625143        -2.066090
 H         4.178351        -1.603026         0.394156
