19
Iteration:  1372charge 0 multiplicity 1
 C         0.083114        -0.252824        -0.069574
 C         1.452751         0.101119         0.081102
 C         1.958694         0.602488         1.501473
 C         3.378439         0.377461         1.226827
 C         3.987528         0.696325        -0.120550
 C         3.139043         1.143883        -1.348613
 O         1.750811         1.138127        -0.937175
 C         3.565992        -0.739756         0.284123
 O         2.286612        -0.996522        -0.209695
 H        -0.202978        -1.136284         0.566509
 H        -0.711856         0.527368         0.124128
 H        -0.066860        -0.610492        -1.075954
 H         1.725032         1.630508         1.601253
 H         1.668594        -0.048717         2.350974
 H         4.071955         0.449349         2.094544
 H         5.016306         1.088653        -0.171812
 H         3.292809         2.188891        -1.476976
 H         3.380808         0.649803        -2.371465
 H         4.245595        -1.515260         0.600682
