19
Iteration:  2388
 C        -0.114035        -0.179775        -0.039253
 C         1.416286         0.032533         0.023322
 C         1.913151         0.445133         1.456033
 C         3.394876         0.563023         1.207095
 C         4.095732         0.647051        -0.140336
 C         3.189628         1.203582        -1.324540
 O         1.830114         1.146749        -0.862702
 C         3.605882        -0.691580         0.327373
 O         2.272311        -1.072922        -0.256156
 H        -0.539268        -0.310935         0.908703
 H        -0.519630         0.644637        -0.548764
 H        -0.320598        -1.123042        -0.551971
 H         1.515520         1.378766         1.844431
 H         1.911633        -0.292091         2.256787
 H         3.985281         0.747821         2.037220
 H         5.119995         0.985762        -0.147036
 H         3.418829         2.295241        -1.555720
 H         3.296431         0.460588        -2.244361
 H         4.282536        -1.574636         0.335303
