19
Iteration:   267
 C        -0.000043        -0.370204         0.066291
 C         1.478134         0.111403         0.035310
 C         1.949558         0.675091         1.414160
 C         3.396084         0.421906         1.265911
 C         3.950071         0.632688        -0.088627
 C         3.292507         1.234061        -1.256722
 O         1.801250         1.154468        -1.038755
 C         3.522805        -0.747987         0.290391
 O         2.267145        -1.042998        -0.272218
 H        -0.337615        -0.959588         0.938454
 H        -0.811654         0.408138         0.082074
 H        -0.330397        -1.017946        -0.791109
 H         1.669481         1.683941         1.511068
 H         1.499409         0.102885         2.363403
 H         3.985765         0.806581         2.089670
 H         4.977988         0.930935        -0.070980
 H         3.428185         2.307886        -1.340580
 H         3.434057         0.794201        -2.226919
 H         4.131866        -1.691629         0.242997
