19
Iteration:  2145
 C        -0.105021        -0.165492        -0.004416
 C         1.432331         0.027133         0.014046
 C         1.949786         0.541671         1.362788
 C         3.457807         0.553203         1.216174
 C         4.022215         0.584313        -0.193732
 C         3.099249         1.181381        -1.233450
 O         1.757450         1.155253        -0.904632
 C         3.620966        -0.736205         0.372809
 O         2.374374        -1.101540        -0.247690
 H        -0.371874        -0.847394         0.835078
 H        -0.578024         0.850455         0.091003
 H        -0.510859        -0.550336        -0.888437
 H         1.581712         1.539642         1.589516
 H         1.643563        -0.108536         2.158075
 H         4.061593         0.930076         2.027497
 H         5.143807         0.646759        -0.331627
 H         3.499705         2.213843        -1.213784
 H         3.284045         0.895246        -2.297935
 H         4.218598        -1.633665         0.604146
