19
Iteration:  3575
 C        -0.020176        -0.190255        -0.147583
 C         1.506009         0.101894         0.002418
 C         1.866042         0.501523         1.478289
 C         3.409827         0.399711         1.319631
 C         3.985803         0.713214        -0.093724
 C         3.121831         1.151061        -1.300823
 O         1.826145         1.206332        -0.888228
 C         3.586585        -0.697932         0.300843
 O         2.337550        -1.043941        -0.256475
 H        -0.385302        -1.035379         0.525045
 H        -0.666104         0.661447         0.072903
 H        -0.123259        -0.610970        -1.146986
 H         1.379440         1.462785         1.743350
 H         1.644509        -0.357167         2.140195
 H         3.913450         0.492759         2.245619
 H         5.094240         0.877066        -0.152308
 H         3.556186         2.148652        -1.733814
 H         3.178641         0.220953        -1.932154
 H         4.129721        -1.568235         0.394834
