19
Iteration:  1903
 C         0.039895        -0.180814         0.143155
 C         1.469190         0.100743        -0.048232
 C         1.945598         0.753899         1.267275
 C         3.374259         0.337353         1.249548
 C         4.025053         0.617400        -0.202477
 C         3.186797         1.462287        -1.104139
 O         1.744473         0.987167        -1.082685
 C         3.558894        -0.756272         0.279069
 O         2.291334        -1.241796        -0.139507
 H        -0.115203        -1.104916         0.744123
 H        -0.385385         0.689910         0.590979
 H        -0.522541        -0.351447        -0.874873
 H         1.709344         1.850252         1.112712
 H         1.423316         0.340913         2.070327
 H         4.103420         0.277209         2.122993
 H         5.114357         0.656305        -0.105330
 H         3.127581         2.528539        -0.767288
 H         3.326049         1.371343        -2.154247
 H         4.257478        -1.581456         0.347633
