19
Iteration:  3179charge 0 multiplicity 1
 C         0.055119        -0.362831        -0.128786
 C         1.490258         0.094702         0.069403
 C         1.888123         0.589510         1.450613
 C         3.402876         0.391166         1.236753
 C         4.056500         0.627500        -0.140346
 C         3.146700         1.225030        -1.200491
 O         1.764981         1.254257        -0.860881
 C         3.552589        -0.703227         0.283082
 O         2.279276        -1.015763        -0.334747
 H        -0.452370        -0.907079         0.701545
 H        -0.490234         0.548239        -0.153621
 H        -0.180964        -0.919847        -0.964765
 H         1.581039         1.524779         1.721342
 H         1.567131        -0.117424         2.229985
 H         4.071516         0.378611         2.152043
 H         5.106565         0.674256         0.042448
 H         3.388066         2.324394        -1.456190
 H         3.347891         0.625383        -2.088811
 H         4.055265        -1.648892         0.647862
