19
Iteration:    37
 C        -0.005676        -0.311924         0.047312
 C         1.451335         0.233404         0.018892
 C         1.921075         0.663620         1.385628
 C         3.422987         0.473598         1.265037
 C         3.943107         0.593619        -0.135557
 C         3.238414         1.223711        -1.188377
 O         1.783907         1.072247        -1.076649
 C         3.591604        -0.752473         0.267322
 O         2.254571        -1.065069        -0.188874
 H         0.026107        -1.237289         0.850357
 H        -0.888244         0.365939         0.318405
 H        -0.246526        -0.717876        -1.003404
 H         1.654834         1.644381         1.638052
 H         1.511589        -0.126659         2.085195
 H         4.074964         0.816863         2.127497
 H         5.062514         0.757122        -0.050732
 H         3.443641         2.355082        -1.173085
 H         3.545389         0.837059        -2.130849
 H         4.250720        -1.658944         0.207096
