19
Iteration:  3222charge 0 multiplicity 1
 C        -0.053328        -0.172416        -0.137791
 C         1.476881         0.024895        -0.015641
 C         1.955183         0.608158         1.435914
 C         3.465532         0.362599         1.320943
 C         4.062022         0.686959        -0.093063
 C         3.167903         1.469729        -1.118709
 O         1.696865         0.978198        -1.019509
 C         3.566222        -0.792589         0.241923
 O         2.273548        -1.114880        -0.213625
 H        -0.493709        -0.738120         0.783677
 H        -0.384244         0.865102        -0.006728
 H        -0.243419        -0.587310        -1.124914
 H         1.699313         1.615260         1.599148
 H         1.630712        -0.056743         2.289761
 H         4.177610         0.349690         2.229355
 H         5.081597         0.986767        -0.287229
 H         3.232520         2.649735        -0.998712
 H         3.537613         1.098062        -2.120979
 H         4.353114        -1.623216         0.308966
