19
Iteration:    41
 C         0.008409        -0.309984         0.021220
 C         1.436235         0.203985         0.018133
 C         1.936360         0.669339         1.365759
 C         3.400976         0.481697         1.253531
 C         3.957893         0.594178        -0.100381
 C         3.203990         1.224085        -1.168094
 O         1.794567         1.049961        -1.014032
 C         3.596181        -0.769643         0.236802
 O         2.268350        -1.056748        -0.192927
 H         0.007440        -1.100624         0.759815
 H        -0.720101         0.481969         0.276334
 H        -0.303054        -0.644680        -0.961768
 H         1.701307         1.844987         1.453187
 H         1.516936        -0.016292         2.089385
 H         4.001695         0.746745         2.080510
 H         4.994043         0.856527        -0.154836
 H         3.379431         2.291745        -1.235478
 H         3.471846         0.746825        -2.181016
 H         4.269236        -1.593573         0.209440
