19
Iteration:  1092charge 0 multiplicity 1
 C        -0.046572        -0.181732        -0.074260
 C         1.443062         0.018670         0.036911
 C         2.015465         0.792511         1.328489
 C         3.533112         0.414947         1.264211
 C         4.095738         0.625554        -0.137395
 C         3.076356         1.312495        -1.037171
 O         1.678958         0.940540        -1.024568
 C         3.579676        -0.723040         0.249802
 O         2.295071        -1.152796        -0.202280
 H        -0.421363        -1.012103         0.600629
 H        -0.506548         0.853676         0.198476
 H        -0.360546        -0.345639        -1.107948
 H         1.789734         1.794518         1.116338
 H         1.538071         0.560028         2.263995
 H         4.057923         0.208543         2.210460
 H         5.156351         0.893068        -0.254375
 H         3.062934         2.356938        -0.836554
 H         3.409107         1.244978        -2.125780
 H         4.135725        -1.653982         0.542956
