19
Iteration:   909
 C         0.027587        -0.246527        -0.146476
 C         1.492523         0.093103         0.096791
 C         2.008100         0.618251         1.440188
 C         3.490866         0.370396         1.317280
 C         4.011827         0.677951        -0.205901
 C         3.104580         1.201675        -1.217564
 O         1.725005         1.009529        -1.017503
 C         3.558214        -0.684544         0.278719
 O         2.228158        -0.977901        -0.112075
 H        -0.307530        -1.067035         0.444464
 H        -0.529720         0.601579         0.282606
 H        -0.231416        -0.288988        -1.167477
 H         1.701421         1.780544         1.608949
 H         1.579117         0.076663         2.327465
 H         4.263346         0.509188         2.075316
 H         5.062901         0.796136        -0.435780
 H         3.201475         2.304786        -1.410675
 H         3.444503         0.716798        -2.127156
 H         4.045904        -1.670920         0.271407
