19
Iteration:  1114charge 0 multiplicity 1
 C        -0.103406        -0.181262        -0.055558
 C         1.459363         0.102396         0.026049
 C         1.943056         0.596434         1.359709
 C         3.494927         0.412762         1.231395
 C         4.006329         0.625741        -0.195802
 C         3.148529         1.340711        -1.205985
 O         1.737948         1.044302        -0.991186
 C         3.628964        -0.746033         0.352637
 O         2.322540        -1.123903        -0.134780
 H        -0.428763        -0.889556         0.775022
 H        -0.596310         0.854587         0.021379
 H        -0.381992        -0.592910        -1.035063
 H         1.593844         1.568766         1.578758
 H         1.581671        -0.101788         2.120099
 H         4.059896         0.723758         2.098893
 H         5.084059         0.677008        -0.220658
 H         3.328847         2.397548        -1.137013
 H         3.328649         1.057494        -2.296033
 H         4.338005        -1.605800         0.509253
