19
Iteration:  4548charge 0 multiplicity 1
 C        -0.030433        -0.291482        -0.137030
 C         1.439924         0.052610         0.043707
 C         1.925603         0.536329         1.376266
 C         3.444000         0.462525         1.250131
 C         4.043325         0.612281        -0.123262
 C         3.163685         1.269225        -1.218386
 O         1.782142         1.262855        -0.791277
 C         3.567668        -0.748430         0.278591
 O         2.316109        -1.071526        -0.253071
 H        -0.278061        -1.086848         0.486080
 H        -0.811793         0.482350        -0.141848
 H        -0.146741        -0.744671        -1.153145
 H         1.390672         1.495368         1.550802
 H         1.647778        -0.083307         2.214116
 H         4.032477         0.647117         2.134255
 H         5.189262         0.707975        -0.355121
 H         3.454102         2.334001        -1.350113
 H         3.149896         0.856706        -2.250183
 H         3.966734        -1.749467         0.489829
