19
Iteration:  4308
 C        -0.110644        -0.289514        -0.124388
 C         1.438226         0.063557         0.019919
 C         1.963379         0.570607         1.400073
 C         3.441920         0.384535         1.241103
 C         4.088920         0.626917        -0.159626
 C         3.221983         1.484666        -1.100955
 O         1.809857         1.058081        -1.057480
 C         3.585050        -0.759517         0.298893
 O         2.226150        -1.091299        -0.125957
 H        -0.355581        -1.196876         0.546768
 H        -0.814049         0.451357         0.291914
 H        -0.376968        -0.344694        -1.168702
 H         1.549231         1.607925         1.621812
 H         1.659258        -0.142984         2.165295
 H         4.033984         0.647182         2.119087
 H         5.224840         1.038340        -0.377152
 H         3.258723         2.589502        -0.860288
 H         3.431204         1.265689        -2.180877
 H         4.077263        -1.734447         0.423387
