19
Iteration:  1577charge 0 multiplicity 1
 C        -0.017626        -0.269561        -0.130447
 C         1.430064         0.061650         0.029883
 C         1.961895         0.546400         1.402720
 C         3.422506         0.509271         1.228593
 C         4.039069         0.624567        -0.147770
 C         3.099443         1.134254        -1.289612
 O         1.723380         1.292429        -0.883308
 C         3.652117        -0.717632         0.342129
 O         2.333808        -1.112469        -0.163388
 H        -0.336445        -1.085802         0.590366
 H        -0.515071         0.669648         0.160242
 H        -0.556742        -0.428301        -1.076961
 H         1.543763         1.634573         1.662991
 H         1.799800        -0.143280         2.250133
 H         4.102346         0.582309         2.119754
 H         5.118566         0.973146        -0.277996
 H         3.434776         2.076012        -1.761059
 H         2.976644         0.401155        -2.094517
 H         4.276968        -1.590834         0.500329
