19
Iteration:  2536
 C        -0.027475        -0.169865        -0.129362
 C         1.441960         0.020159        -0.006976
 C         1.943744         0.592392         1.410958
 C         3.448355         0.438588         1.259848
 C         4.033358         0.621636        -0.132368
 C         3.141262         1.237653        -1.262760
 O         1.741599         1.151546        -0.857492
 C         3.631767        -0.696186         0.323610
 O         2.302650        -1.131413        -0.201524
 H        -0.421789        -1.258056        -0.007571
 H        -0.564419         0.433480         0.621168
 H        -0.212690         0.160917        -1.142333
 H         1.597418         1.608539         1.531528
 H         1.421151        -0.008297         2.183529
 H         4.048998         0.501296         2.113384
 H         5.073882         0.815888        -0.244649
 H         3.340941         2.384784        -1.353507
 H         3.200077         0.698149        -2.285185
 H         4.262526        -1.563165         0.525334
