19
Iteration:  2072
 C        -0.033050        -0.239293         0.008860
 C         1.457105         0.115151         0.056981
 C         2.027853         0.782985         1.263315
 C         3.505190         0.454888         1.207649
 C         4.068941         0.538815        -0.250545
 C         3.074346         1.448447        -0.972353
 O         1.808641         0.877593        -1.121517
 C         3.531085        -0.788640         0.257294
 O         2.197087        -1.162845        -0.096214
 H        -0.212655        -1.233491         0.554579
 H        -0.667361         0.627380         0.306181
 H        -0.398167        -0.223983        -1.006068
 H         1.776332         1.821275         1.211298
 H         1.603815         0.440985         2.229879
 H         4.213506         0.425206         2.062351
 H         5.112370         0.717703        -0.511791
 H         3.002001         2.388827        -0.288104
 H         3.379076         1.923880        -1.882461
 H         4.328220        -1.459985         0.495247
