19
Iteration:  4074charge 0 multiplicity 1
 C        -0.084839        -0.219495        -0.061976
 C         1.463101         0.076433        -0.148253
 C         2.003497         0.704964         1.279993
 C         3.505430         0.393509         1.311864
 C         3.996175         0.594241        -0.103820
 C         3.132034         1.564922        -0.872730
 O         1.812959         0.970500        -1.180144
 C         3.572610        -0.802329         0.229462
 O         2.227220        -1.226193        -0.091011
 H        -0.428329        -0.764269         0.843844
 H        -0.684882         0.683823        -0.114971
 H        -0.268522        -0.742506        -0.937418
 H         1.917303         1.763427         1.333437
 H         1.585967         0.320945         2.230967
 H         4.192749         0.472014         2.182880
 H         5.154474         0.605335        -0.296803
 H         2.766292         2.471926        -0.333640
 H         3.608535         1.836242        -1.790379
 H         4.264592        -1.687062         0.146449
