19
Iteration:  3732charge 0 multiplicity 1
 C        -0.028660        -0.388563        -0.148304
 C         1.401333         0.179696         0.053217
 C         1.973498         0.606087         1.440156
 C         3.472913         0.375260         1.305714
 C         4.020822         0.619484        -0.081626
 C         3.228640         1.297594        -1.183118
 O         1.767974         1.197538        -0.965033
 C         3.500019        -0.773568         0.297558
 O         2.266226        -1.014143        -0.270016
 H        -0.148565        -1.113205         0.590356
 H        -0.767315         0.399985        -0.100332
 H        -0.263929        -0.896206        -1.102330
 H         1.672677         1.661819         1.573673
 H         1.712654        -0.027099         2.235739
 H         4.136851         0.656362         2.134586
 H         5.126738         0.787927        -0.139899
 H         3.567596         2.265063        -1.237383
 H         3.374024         0.693318        -2.101201
 H         4.024005        -1.716053         0.253462
