19
Iteration:  4621charge 0 multiplicity 1
 C        -0.002373        -0.136001        -0.053327
 C         1.481855         0.067255         0.062946
 C         1.894247         0.507363         1.417234
 C         3.435691         0.425691         1.249437
 C         3.993939         0.624200        -0.155194
 C         3.176629         1.462940        -1.130671
 O         1.809709         1.007194        -0.980061
 C         3.577960        -0.746866         0.239207
 O         2.286009        -1.146223        -0.238631
 H        -0.568193        -0.908616         0.620586
 H        -0.574401         0.838412        -0.023314
 H        -0.222686        -0.587451        -1.006294
 H         1.531404         1.647070         1.454869
 H         1.446347        -0.063315         2.250935
 H         3.936963         0.220023         2.154145
 H         5.137848         0.969188        -0.152530
 H         3.113890         2.556152        -0.838386
 H         3.432070         1.234985        -2.203103
 H         4.351545        -1.515512         0.233208
