19
Iteration:  4603
 C        -0.011853        -0.267712        -0.124765
 C         1.430391         0.131115        -0.014477
 C         1.989942         0.583706         1.429204
 C         3.478529         0.252399         1.332185
 C         3.988318         0.685277        -0.042990
 C         3.170163         1.326541        -1.138164
 O         1.709183         1.133263        -1.026011
 C         3.602212        -0.720172         0.232381
 O         2.258061        -1.039556        -0.243794
 H        -0.246571        -0.776810         0.738069
 H        -0.566401         0.661512         0.017591
 H        -0.308364        -0.984918        -0.935193
 H         1.717691         1.576171         1.725665
 H         1.685502        -0.194965         2.095829
 H         4.224385         0.576675         2.085882
 H         5.119773         0.804186        -0.062899
 H         3.363634         2.390889        -1.105700
 H         3.321385         0.795424        -2.080948
 H         4.243550        -1.608308         0.301902
