19
Iteration:  4200charge 0 multiplicity 1
 C         0.010574        -0.326509        -0.199125
 C         1.463860         0.190368         0.062379
 C         1.930204         0.591098         1.420845
 C         3.425317         0.366623         1.342033
 C         4.005849         0.624208        -0.110796
 C         3.167512         1.303728        -1.181917
 O         1.762147         1.184560        -1.012099
 C         3.588573        -0.745531         0.289700
 O         2.236652        -1.072688        -0.142959
 H        -0.287667        -1.202907         0.543859
 H        -0.697193         0.527590        -0.268175
 H        -0.040297        -0.885884        -1.187257
 H         1.685809         1.658099         1.759381
 H         1.487377        -0.109039         2.169282
 H         4.208402         0.357937         2.106848
 H         5.183066         0.665968        -0.306192
 H         3.419492         2.355410        -1.220559
 H         3.348440         0.878636        -2.231927
 H         4.411312        -1.447172         0.192356
