19
Iteration:  1844charge 0 multiplicity 1
 C         0.043780        -0.220199        -0.139890
 C         1.492056         0.108392         0.092067
 C         2.040198         0.671540         1.380672
 C         3.531916         0.352968         1.212701
 C         3.945139         0.671843        -0.180341
 C         3.043053         1.409741        -1.118448
 O         1.745051         0.944269        -1.038734
 C         3.599179        -0.810763         0.198290
 O         2.182735        -1.092630        -0.008296
 H        -0.460776        -0.673542         0.767232
 H        -0.582593         0.721166        -0.376909
 H        -0.033692        -0.813871        -1.009352
 H         1.873836         1.738647         1.405442
 H         1.670683         0.343010         2.432779
 H         4.265437         0.481548         1.961741
 H         5.027269         0.819793        -0.287470
 H         3.209621         2.514992        -0.950838
 H         3.342207         1.306157        -2.174960
 H         4.301474        -1.647884         0.197071
