19
Iteration:  2605charge 0 multiplicity 1
 C        -0.030378        -0.253879        -0.093897
 C         1.506643         0.084389        -0.007682
 C         2.008090         0.605686         1.323246
 C         3.473427         0.408028         1.311860
 C         4.025010         0.643290        -0.088418
 C         3.116738         1.259122        -1.138397
 O         1.682266         1.177991        -0.902407
 C         3.582756        -0.775117         0.256348
 O         2.295726        -1.122982        -0.262355
 H        -0.515421        -0.586473         0.763351
 H        -0.411221         0.776169        -0.215222
 H        -0.347950        -0.889453        -1.007417
 H         1.888097         1.681164         1.507506
 H         1.491538         0.111087         2.147449
 H         4.110806         0.597327         2.244863
 H         5.098344         0.993928         0.024325
 H         3.184264         2.400369        -1.217281
 H         3.302436         0.690157        -2.101679
 H         4.170965        -1.686160         0.281423
