19
Iteration:  4192
 C        -0.033883        -0.283817        -0.234698
 C         1.463941         0.134696        -0.030802
 C         1.952299         0.590583         1.420944
 C         3.485225         0.363351         1.335501
 C         4.058969         0.658480        -0.097462
 C         3.130123         1.224311        -1.196997
 O         1.715630         1.153434        -0.895669
 C         3.601288        -0.698820         0.297700
 O         2.270434        -1.029625        -0.164361
 H        -0.337579        -1.077648         0.531846
 H        -0.816612         0.531186        -0.218051
 H         0.038308        -0.590949        -1.259266
 H         1.600607         1.608725         1.523617
 H         1.430999        -0.095645         2.165245
 H         3.982863         0.347935         2.308925
 H         5.173645         0.783145        -0.332747
 H         3.465145         2.212734        -1.310916
 H         3.291691         0.646232        -2.142417
 H         4.304512        -1.575409         0.319334
