19
Iteration:  1469charge 0 multiplicity 1
 C        -0.109066        -0.235235         0.021399
 C         1.498939         0.175885        -0.032694
 C         2.000650         0.586287         1.323974
 C         3.495263         0.464308         1.218818
 C         4.086900         0.720685        -0.154699
 C         3.144990         1.570717        -1.084849
 O         1.833915         0.818001        -1.191459
 C         3.530417        -0.832288         0.250076
 O         2.208205        -1.129867        -0.011898
 H        -0.340543        -0.842987         0.982452
 H        -0.852486         0.622441         0.151482
 H        -0.367577        -0.828168        -0.864458
 H         1.779703         1.664184         1.534161
 H         1.686169        -0.039653         2.122524
 H         4.108410         0.598281         2.166187
 H         5.126724         0.378035        -0.405167
 H         2.812824         2.494709        -0.456120
 H         3.354865         1.941914        -2.079743
 H         4.053287        -1.783003         0.139284
