19
Iteration:  1164
 C        -0.081788        -0.310227        -0.098592
 C         1.468065         0.083216         0.007936
 C         1.995270         0.639982         1.406220
 C         3.479516         0.407089         1.306668
 C         4.097699         0.609399        -0.153348
 C         3.145054         1.202906        -1.195146
 O         1.638178         1.161222        -0.945122
 C         3.639293        -0.787739         0.287189
 O         2.275665        -1.006276        -0.198593
 H        -0.287375        -0.859842         0.747370
 H        -0.671373         0.609680        -0.214622
 H        -0.260873        -0.887146        -0.995729
 H         1.861424         1.739415         1.229169
 H         1.505220         0.407927         2.392536
 H         4.123657         0.602708         2.185592
 H         5.086149         1.068260        -0.150088
 H         3.538855         2.282615        -1.249849
 H         3.196548         0.815759        -2.201664
 H         4.173127        -1.765529         0.375934
