19
Iteration:  3864charge 0 multiplicity 1
 C        -0.010716        -0.342939        -0.033338
 C         1.481418         0.092683        -0.000952
 C         2.017860         0.811305         1.325564
 C         3.436802         0.346660         1.255234
 C         4.022194         0.549262        -0.140206
 C         3.078376         1.469886        -0.877984
 O         1.821953         0.982443        -1.127196
 C         3.525295        -0.764972         0.250773
 O         2.237091        -1.118219        -0.240078
 H        -0.439884        -0.740523         0.827435
 H        -0.657779         0.550314        -0.273074
 H        -0.181187        -0.960580        -1.011889
 H         2.085266         1.960314         1.181620
 H         1.333198         0.722736         2.160857
 H         4.154539         0.190972         2.066023
 H         5.280227         0.717862        -0.140738
 H         3.072900         2.334593        -0.240679
 H         3.569567         1.836722        -1.861352
 H         4.030130        -1.764310         0.359435
