19
Iteration:  1116
 C        -0.081589        -0.181570        -0.053654
 C         1.457080         0.106484         0.031402
 C         1.938065         0.575290         1.375730
 C         3.504024         0.427360         1.235330
 C         3.991113         0.628786        -0.189755
 C         3.163160         1.324005        -1.214783
 O         1.739122         1.054472        -0.996347
 C         3.622883        -0.745640         0.332822
 O         2.315507        -1.124413        -0.131244
 H        -0.397427        -0.880586         0.798455
 H        -0.570667         0.785705        -0.013834
 H        -0.388276        -0.581148        -1.042705
 H         1.538361         1.578579         1.593083
 H         1.552419        -0.061328         2.097555
 H         4.097148         0.766556         2.071151
 H         5.089108         0.652551        -0.146483
 H         3.265350         2.401419        -1.144526
 H         3.343783         1.079342        -2.312519
 H         4.268846        -1.614276         0.484881
