19
Iteration:  3965charge 0 multiplicity 1
 C        -0.005888        -0.418396        -0.136523
 C         1.398231         0.156967         0.022321
 C         1.898179         0.594672         1.411191
 C         3.444570         0.303240         1.355483
 C         4.073206         0.632552        -0.060537
 C         3.212973         1.196172        -1.343165
 O         1.788117         1.322277        -0.884577
 C         3.555586        -0.701971         0.324851
 O         2.229382        -0.980495        -0.268316
 H         0.059269        -1.422710         0.430040
 H        -0.740400         0.277925         0.256688
 H        -0.225449        -0.535099        -1.136528
 H         1.513510         1.561213         1.567825
 H         1.594630        -0.023506         2.289629
 H         4.142500         0.322183         2.188045
 H         5.268839         0.873643        -0.055098
 H         3.386723         2.161799        -1.693391
 H         3.446825         0.375987        -2.077218
 H         4.154604        -1.573478         0.343101
