19
Iteration:  4742
 C         0.056976        -0.191409        -0.116059
 C         1.470337         0.183137         0.042468
 C         1.982028         0.475466         1.509945
 C         3.420168         0.363034         1.296117
 C         3.937001         0.699472        -0.075367
 C         3.127214         1.240796        -1.191419
 O         1.764397         1.093766        -0.928838
 C         3.582884        -0.698460         0.220170
 O         2.273070        -1.066366        -0.296272
 H        -0.583818        -0.879448         0.525557
 H        -0.435025         0.842460        -0.162962
 H        -0.071082        -0.723153        -1.147948
 H         1.758501         1.614007         1.791043
 H         1.635456        -0.300337         2.190556
 H         4.102345         0.461228         2.159088
 H         5.015384         1.001228        -0.325074
 H         3.336377         2.309094        -1.389797
 H         3.295242         0.537193        -2.051439
 H         4.233699        -1.533692         0.333008
