19
Iteration:  2833charge 0 multiplicity 1
 C        -0.142920        -0.198505        -0.078282
 C         1.499859         0.047026         0.006886
 C         2.015172         0.702650         1.325915
 C         3.486963         0.335800         1.302572
 C         4.011407         0.604194        -0.130373
 C         3.120382         1.454139        -1.015934
 O         1.791726         0.987792        -1.055441
 C         3.538165        -0.805075         0.291653
 O         2.302077        -1.099096        -0.239601
 H        -0.479967        -0.659256         0.868066
 H        -0.821425         0.642488        -0.263620
 H        -0.273757        -1.025633        -0.740386
 H         1.801562         1.700780         1.362109
 H         1.506590         0.310387         2.168391
 H         4.213435         0.505572         2.136331
 H         5.050248         0.889722        -0.293743
 H         3.239586         2.565707        -0.616753
 H         3.367799         1.372833        -2.060378
 H         4.355735        -1.584891         0.274463
