19
Iteration:  4588
 C         0.004939        -0.352342        -0.088415
 C         1.480126         0.176509        -0.002281
 C         2.003646         0.557342         1.397900
 C         3.485789         0.328223         1.360732
 C         4.009644         0.657776        -0.046578
 C         3.109074         1.227879        -1.160913
 O         1.708000         1.231859        -0.962801
 C         3.554925        -0.778949         0.269307
 O         2.256945        -0.967547        -0.291832
 H        -0.210707        -0.997300         0.865926
 H        -0.760753         0.409365        -0.321494
 H         0.096744        -0.900707        -1.003595
 H         1.815184         1.710677         1.577473
 H         1.399140         0.062528         2.161855
 H         3.992400        -0.014903         2.213156
 H         5.090159         1.062191        -0.257276
 H         3.409983         2.248901        -1.506783
 H         3.542707         0.664579        -2.008530
 H         4.210972        -1.631588         0.146848
