19
Iteration:  4798charge 0 multiplicity 1
 C         0.088329        -0.311909        -0.104399
 C         1.550627         0.097620        -0.001229
 C         1.918834         0.586055         1.425517
 C         3.414579         0.407624         1.276040
 C         4.020453         0.576329        -0.170376
 C         3.133611         1.326359        -1.186226
 O         1.756123         1.211648        -0.829705
 C         3.538564        -0.821178         0.300244
 O         2.236290        -1.032582        -0.300088
 H        -0.248039        -0.975860         0.617137
 H        -0.733280         0.446805        -0.047255
 H        -0.013354        -0.842327        -1.196298
 H         1.500752         1.643074         1.535422
 H         1.727984         0.017893         2.329495
 H         4.144478         0.649322         2.091483
 H         4.989281         0.765584        -0.266655
 H         3.384926         2.382248        -1.194200
 H         3.226341         1.144082        -2.264444
 H         3.969877        -1.793763         0.547450
