19
Iteration:  2699charge 0 multiplicity 1
 C         0.013727        -0.329625        -0.025222
 C         1.463658         0.126395        -0.002941
 C         1.991170         0.711214         1.294077
 C         3.481905         0.416689         1.250414
 C         4.012484         0.549190        -0.087346
 C         3.126741         1.416170        -1.033976
 O         1.796747         1.027758        -1.032188
 C         3.481768        -0.827583         0.272160
 O         2.249649        -1.084392        -0.231687
 H        -0.260679        -1.136410         0.680926
 H        -0.517191         0.590050         0.262842
 H        -0.198328        -0.620613        -1.097158
 H         1.748885         1.820257         1.283845
 H         1.402035         0.397308         2.216394
 H         4.057125         0.459000         2.153041
 H         5.077497         0.783115        -0.228285
 H         3.321600         2.575677        -0.694027
 H         3.413114         1.565636        -2.120176
 H         4.162701        -1.657307         0.302639
