19
Iteration:  2192
 C        -0.024901        -0.320254        -0.177161
 C         1.396577         0.187113         0.097961
 C         2.058881         0.700114         1.514969
 C         3.548219         0.386472         1.288400
 C         3.996681         0.634629        -0.139646
 C         3.129585         1.140243        -1.244768
 O         1.694014         1.131958        -0.891856
 C         3.592330        -0.731941         0.251041
 O         2.232992        -0.989754        -0.234414
 H        -0.453925        -0.813289         0.776848
 H        -0.704685         0.425729        -0.641336
 H         0.008673        -1.197348        -0.962513
 H         1.842132         1.749147         1.580872
 H         1.692453         0.166349         2.393950
 H         4.222278         0.269646         2.235057
 H         5.079845         0.829593        -0.154150
 H         3.337478         2.114399        -1.739832
 H         3.339709         0.447815        -2.078758
 H         4.237454        -1.584190         0.075684
