19
Iteration:  4218
 C         0.060971        -0.342136        -0.092676
 C         1.511769         0.100345        -0.022308
 C         1.964512         0.623198         1.472821
 C         3.404796         0.378489         1.236249
 C         3.966360         0.636947        -0.144501
 C         3.237943         1.494017        -1.144920
 O         1.802233         1.077588        -1.056358
 C         3.467449        -0.827600         0.271042
 O         2.185959        -1.079182        -0.151098
 H        -0.069561        -0.876336         0.759208
 H        -0.631401         0.420429        -0.289860
 H         0.053826        -0.984470        -0.989617
 H         1.631052         1.665781         1.518552
 H         1.550683         0.048708         2.259919
 H         4.035738         0.564994         2.123814
 H         4.967129         0.826748        -0.075544
 H         3.504224         2.609479        -0.749301
 H         3.587741         1.344842        -2.135704
 H         3.996598        -1.726765         0.532852
