19
Iteration:  4616
 C        -0.030676        -0.165391        -0.051993
 C         1.486071         0.089019         0.027505
 C         1.917558         0.527999         1.445172
 C         3.414671         0.390880         1.278276
 C         4.032024         0.651630        -0.120950
 C         3.188259         1.432065        -1.152978
 O         1.752947         1.033941        -0.981941
 C         3.572767        -0.768344         0.208042
 O         2.305672        -1.125310        -0.235028
 H        -0.400151        -0.844806         0.699200
 H        -0.597591         0.738514        -0.138868
 H        -0.212550        -0.593649        -1.075154
 H         1.644957         1.501322         1.630213
 H         1.397033        -0.050077         2.246094
 H         4.030535         0.441573         2.245074
 H         5.018439         0.857623        -0.185596
 H         3.167346         2.513267        -1.051375
 H         3.601047         1.250615        -2.156241
 H         4.253806        -1.623185         0.208370
