19
Iteration:   842charge 0 multiplicity 1
 C         0.046798        -0.248521         0.037347
 C         1.448490         0.166840         0.083857
 C         2.028566         0.794455         1.370965
 C         3.534613         0.336704         1.245127
 C         3.989617         0.603945        -0.133776
 C         3.083760         1.409440        -1.028887
 O         1.782584         0.855073        -1.192903
 C         3.474616        -0.763097         0.227970
 O         2.201502        -1.124537        -0.176730
 H        -0.190531        -0.756954         0.896135
 H        -0.577793         0.642903        -0.193104
 H         0.147625        -0.802194        -0.884128
 H         2.069007         2.054200         1.395397
 H         1.477550         0.493808         2.330107
 H         4.198925         0.467259         2.109152
 H         5.030209         0.801534        -0.319424
 H         2.960814         2.517580        -0.788661
 H         3.405855         1.388302        -2.047431
 H         4.257017        -1.479247         0.326843
