19
Iteration:  3385
 C        -0.016230        -0.347593        -0.180821
 C         1.473817         0.073263         0.026434
 C         1.943206         0.634254         1.323844
 C         3.496378         0.362038         1.291435
 C         4.057187         0.557281        -0.091384
 C         3.110758         1.249327        -1.113317
 O         1.727005         1.335700        -0.842873
 C         3.594410        -0.735839         0.314794
 O         2.261808        -1.065171        -0.306582
 H        -0.330925        -1.005844         0.729408
 H        -0.769203         0.458599        -0.218127
 H        -0.058114        -1.034734        -1.013224
 H         1.786155         1.685027         1.381090
 H         1.537827         0.047331         2.199221
 H         4.117971         0.475347         2.162101
 H         5.019325         0.861175        -0.134757
 H         3.454704         2.255958        -1.417467
 H         3.101703         0.648975        -2.040932
 H         4.211871        -1.594278         0.442615
