19
Iteration:  2305charge 0 multiplicity 1
 C        -0.068862        -0.246595        -0.022016
 C         1.405474        -0.017558         0.004426
 C         1.957379         0.703341         1.279922
 C         3.531066         0.453609         1.215304
 C         4.087772         0.591718        -0.241871
 C         3.196673         1.508603        -1.098981
 O         1.790525         0.975101        -1.029366
 C         3.506535        -0.794982         0.312093
 O         2.233571        -1.167061        -0.087481
 H        -0.287961        -1.210741         0.470301
 H        -0.489202         0.565681         0.661220
 H        -0.438161         0.068135        -1.128130
 H         1.532467         1.760079         1.332815
 H         1.611010         0.182678         2.223832
 H         4.268674         0.691061         1.947054
 H         5.173513         0.679930        -0.414167
 H         3.197227         2.531482        -0.580847
 H         3.400233         1.661326        -2.162224
 H         4.061638        -1.621670         0.677515
