19
Iteration:   868charge 0 multiplicity 1
 C        -0.103299        -0.238847         0.087905
 C         1.432837        -0.002022        -0.036064
 C         1.937010         0.689272         1.235104
 C         3.492774         0.411640         1.172028
 C         4.074369         0.564075        -0.168866
 C         3.176961         1.446045        -1.098103
 O         1.765852         1.068497        -1.076641
 C         3.578674        -0.763247         0.317489
 O         2.265681        -1.158105        -0.088492
 H        -0.219245        -0.841419         1.050037
 H        -0.421415         0.781094         0.183826
 H        -0.544751        -0.729221        -0.783645
 H         1.788599         1.773258         1.210030
 H         1.496413         0.295581         2.157893
 H         4.036035         0.454210         2.127688
 H         5.147872         0.796812        -0.260842
 H         3.220627         2.476662        -0.784037
 H         3.381731         1.323393        -2.231207
 H         4.343853        -1.560117         0.401774
