19
Iteration:  3565
 C        -0.061906        -0.174317        -0.172425
 C         1.434608         0.119061         0.001261
 C         1.863326         0.489635         1.408470
 C         3.369413         0.405830         1.313267
 C         4.051909         0.702896        -0.118043
 C         3.149982         1.087204        -1.237389
 O         1.786180         1.214486        -0.809650
 C         3.673056        -0.692682         0.316143
 O         2.352755        -1.063613        -0.249419
 H        -0.296096        -0.948435         0.631961
 H        -0.658648         0.721438        -0.175923
 H        -0.284424        -0.561152        -1.136938
 H         1.416484         1.461605         1.711413
 H         1.437458        -0.206176         2.114424
 H         4.134740         0.476723         2.031306
 H         5.120067         0.891716        -0.259140
 H         3.354812         2.152537        -1.820396
 H         3.215047         0.445316        -2.168138
 H         4.383553        -1.463287         0.438020
