19
Iteration:  4511charge 0 multiplicity 1
 C        -0.031495        -0.117611        -0.160863
 C         1.484844         0.086061         0.104868
 C         1.965304         0.534873         1.480904
 C         3.485664         0.295060         1.334407
 C         3.918499         0.695056        -0.064670
 C         3.099528         1.376764        -1.187333
 O         1.768709         0.961687        -1.053000
 C         3.595450        -0.746608         0.148544
 O         2.299570        -1.038354        -0.194873
 H        -0.312605        -1.118409         0.361654
 H        -0.607204         0.664083         0.281235
 H        -0.055664        -0.249545        -1.206836
 H         1.630079         1.596725         1.536743
 H         1.569136        -0.081356         2.268904
 H         4.194733         0.656950         2.097503
 H         4.987461         0.892590        -0.000269
 H         3.159386         2.472460        -1.011325
 H         3.619307         1.021847        -2.063764
 H         4.314181        -1.489246         0.376943
