19
Iteration:  1552charge 0 multiplicity 1
 C         0.057265        -0.291570        -0.008912
 C         1.467684         0.109487         0.090234
 C         1.898197         0.589858         1.442884
 C         3.346955         0.467601         1.245396
 C         4.047078         0.611258        -0.252068
 C         3.228156         1.226457        -1.307039
 O         1.803536         1.107358        -0.895448
 C         3.556063        -0.667904         0.330208
 O         2.236674        -1.037605        -0.214186
 H        -0.113395        -1.156397         0.576538
 H        -0.797117         0.442618         0.111078
 H        -0.194884        -0.633608        -0.985314
 H         1.335166         1.546401         1.746553
 H         1.712731        -0.226706         2.218425
 H         4.125842         0.811324         1.971753
 H         5.117607         0.844199        -0.338773
 H         3.433491         2.259279        -1.518193
 H         3.170310         0.677099        -2.327216
 H         4.158379        -1.587957         0.363797
