19
Iteration:  2566charge 0 multiplicity 1
 C         0.074644        -0.416175        -0.101312
 C         1.402338         0.206888         0.008670
 C         1.938494         0.627866         1.495891
 C         3.403271         0.397670         1.240289
 C         4.061327         0.567589        -0.071514
 C         3.205367         1.137504        -1.336169
 O         1.762140         1.241600        -0.854090
 C         3.557307        -0.751869         0.274344
 O         2.193235        -0.907083        -0.230258
 H         0.269572        -1.467550         0.287005
 H        -0.776361         0.106604         0.377571
 H        -0.171707        -0.503180        -1.105866
 H         1.694536         1.672000         1.827318
 H         1.465851        -0.169471         2.086921
 H         4.158416         0.514943         2.026615
 H         5.090743         0.834204        -0.097036
 H         3.544248         2.092575        -1.577717
 H         3.412379         0.670818        -2.358536
 H         4.114328        -1.691967         0.314514
