19
Iteration:  1491charge 0 multiplicity 1
 C        -0.015338        -0.228091         0.014147
 C         1.522178         0.038145         0.005188
 C         1.978057         0.768432         1.319153
 C         3.495585         0.398811         1.205912
 C         3.976098         0.630709        -0.212278
 C         3.102234         1.490500        -0.960209
 O         1.807063         0.860667        -1.150028
 C         3.533746        -0.724576         0.231826
 O         2.211950        -1.158353        -0.109474
 H        -0.265006        -0.734707         1.020420
 H        -0.569489         0.739744        -0.027639
 H        -0.136086        -0.849077        -0.882584
 H         1.596525         1.827018         1.305442
 H         1.704779         0.212547         2.201217
 H         4.277436         0.374932         2.024126
 H         5.095947         0.786658        -0.297267
 H         3.270528         2.497554        -0.405364
 H         3.317341         1.644322        -2.007217
 H         4.097930        -1.607571         0.515284
