19
Iteration:  3388
 C        -0.037583        -0.346322        -0.157530
 C         1.492667         0.081354         0.019830
 C         1.938868         0.635959         1.335728
 C         3.502687         0.368141         1.289710
 C         4.028173         0.541199        -0.123729
 C         3.129043         1.271260        -1.118886
 O         1.722445         1.337405        -0.839251
 C         3.578984        -0.743089         0.330322
 O         2.289004        -1.083303        -0.298235
 H        -0.394416        -1.015234         0.617617
 H        -0.784239         0.484397        -0.207165
 H         0.003239        -0.998774        -1.086256
 H         1.705764         1.663133         1.347771
 H         1.489693         0.102054         2.185910
 H         4.050298         0.479465         2.214034
 H         5.210775         0.925703        -0.216658
 H         3.310551         2.242282        -1.313840
 H         3.247372         0.681393        -2.096298
 H         4.190985        -1.694046         0.401675
