19
Iteration:  3798charge 0 multiplicity 1
 C        -0.059843        -0.163943        -0.162367
 C         1.444335         0.104970         0.055425
 C         1.931918         0.491573         1.413310
 C         3.436200         0.420990         1.283722
 C         4.060259         0.656295        -0.107758
 C         3.174738         1.264830        -1.195406
 O         1.734561         1.071133        -0.926904
 C         3.563458        -0.717457         0.282054
 O         2.330356        -1.068926        -0.204523
 H        -0.441728        -0.999939         0.282201
 H        -0.505431         0.822345         0.045659
 H        -0.092999        -0.114714        -1.321046
 H         1.434767         1.460321         1.712710
 H         1.639007        -0.233921         2.147365
 H         4.017057         0.515588         2.221937
 H         5.245192         0.891187        -0.198862
 H         3.074611         2.315474        -1.329061
 H         3.469928         0.706815        -2.162416
 H         4.315320        -1.458572         0.429155
