19
Iteration:  2629charge 0 multiplicity 1
 C        -0.049161        -0.129656        -0.099832
 C         1.516384         0.076156         0.047036
 C         1.919737         0.517160         1.495035
 C         3.443248         0.405068         1.243453
 C         4.000484         0.664761        -0.179075
 C         3.160446         1.466561        -1.144450
 O         1.803752         0.951747        -1.068825
 C         3.566507        -0.723333         0.221608
 O         2.264446        -1.124249        -0.141045
 H        -0.511263        -0.327746         0.877974
 H        -0.545350         0.784141        -0.460716
 H        -0.256734        -0.976089        -0.739875
 H         1.729448         1.532220         1.936791
 H         1.548703        -0.229376         2.216079
 H         4.174841         0.150761         2.058794
 H         5.087430         0.640295        -0.311863
 H         2.961818         2.517762        -0.821190
 H         3.548749         1.519075        -2.174543
 H         4.287582        -1.548319         0.315059
