19
Iteration:  2693
 C         0.019910        -0.311015        -0.009720
 C         1.466973         0.070481         0.020825
 C         2.000316         0.752674         1.311725
 C         3.456950         0.375132         1.248350
 C         3.997213         0.565794        -0.142099
 C         3.119333         1.469100        -1.004386
 O         1.789049         1.029472        -1.050475
 C         3.537334        -0.822940         0.294825
 O         2.242297        -1.107927        -0.250395
 H        -0.341560        -1.050816         0.673493
 H        -0.551753         0.630655         0.094862
 H        -0.162606        -0.625505        -1.041775
 H         1.833601         1.797386         1.089101
 H         1.330804         0.583747         2.120719
 H         4.039460         0.516505         2.188311
 H         5.079652         0.659845        -0.232048
 H         3.189216         2.360379        -0.482161
 H         3.526362         1.523219        -1.995168
 H         4.185775        -1.710537         0.308092
