19
Iteration:   796charge 0 multiplicity 1
 C        -0.030330        -0.171447        -0.053738
 C         1.449322         0.040711         0.078130
 C         1.999607         0.701901         1.351183
 C         3.456589         0.492190         1.082194
 C         4.034021         0.601523        -0.241112
 C         3.173598         1.400486        -1.116785
 O         1.755996         1.006232        -0.995149
 C         3.556970        -0.799080         0.344980
 O         2.250215        -1.208759        -0.063901
 H        -0.389773        -0.812930         0.776434
 H        -0.545800         0.757080        -0.087896
 H        -0.141161        -0.683626        -1.056848
 H         1.494054         1.748593         1.261581
 H         1.539039         0.139465         2.199836
 H         3.988650         0.543478         2.016689
 H         5.127236         0.795753        -0.500622
 H         3.111704         2.447058        -0.744579
 H         3.586203         1.397167        -2.095987
 H         4.260334        -1.668395         0.389297
