19
Iteration:  4775
 C        -0.019520        -0.315333        -0.176718
 C         1.417830         0.142785         0.086169
 C         1.907946         0.504704         1.404143
 C         3.470095         0.389841         1.295693
 C         4.048942         0.611070        -0.170510
 C         3.112921         1.224329        -1.196193
 O         1.747840         1.298236        -0.801020
 C         3.637921        -0.729542         0.261151
 O         2.299113        -1.087754        -0.269942
 H        -0.669065        -0.815185         0.544110
 H        -0.539227         0.685168        -0.331377
 H        -0.071639        -0.743772        -1.259204
 H         1.772589         1.613255         1.691746
 H         1.595745        -0.066326         2.258972
 H         4.088948         0.478087         2.212284
 H         5.094474         0.850907        -0.242682
 H         3.340464         2.207427        -1.564118
 H         3.205271         0.633640        -2.137801
 H         4.324546        -1.511041         0.473392
