19
Iteration:   406charge 0 multiplicity 1
 C        -0.038216        -0.266072         0.008232
 C         1.482830         0.059308         0.009220
 C         2.052287         0.803596         1.291608
 C         3.474272         0.317353         1.350897
 C         3.964050         0.649989        -0.047955
 C         3.105570         1.386892        -1.056896
 O         1.737997         0.922423        -1.169111
 C         3.613726        -0.728270         0.216460
 O         2.228183        -1.109788        -0.155812
 H        -0.505874        -1.047216         0.701841
 H        -0.436075         0.704397         0.264178
 H        -0.370856        -0.580542        -0.979122
 H         1.975920         1.928436         1.019231
 H         1.472292         0.666782         2.248871
 H         4.203594         0.368084         2.188159
 H         5.027888         0.806878        -0.076518
 H         3.119179         2.532859        -0.927315
 H         3.608590         1.137518        -2.016982
 H         4.395589        -1.576028         0.062691
