19
Iteration:  4723
 C        -0.006510        -0.187134        -0.082588
 C         1.456150         0.040979         0.019603
 C         1.893997         0.545783         1.364578
 C         3.483532         0.368324         1.284580
 C         4.056235         0.589546        -0.108430
 C         3.150171         1.366262        -1.186799
 O         1.693961         1.164015        -0.971528
 C         3.591847        -0.782251         0.313421
 O         2.319608        -1.065275        -0.243267
 H        -0.218248        -0.796760         0.699886
 H        -0.588774         0.674232         0.198335
 H        -0.429176        -0.740109        -0.990825
 H         1.546825         1.585625         1.524531
 H         1.615572        -0.149823         2.151859
 H         4.181155         0.334342         2.162453
 H         5.034895         0.800114        -0.005980
 H         3.209954         2.515165        -1.094771
 H         3.444690         1.139304        -2.195726
 H         4.287852        -1.610529         0.279542
