19
Iteration:  3460
 C         0.000875        -0.109067        -0.035435
 C         1.473992         0.050549        -0.049104
 C         1.954625         0.682974         1.295481
 C         3.451917         0.320197         1.279263
 C         4.015822         0.665805        -0.101454
 C         3.068917         1.495574        -0.915886
 O         1.821438         0.881152        -1.174171
 C         3.581321        -0.817596         0.260545
 O         2.280092        -1.167558        -0.180202
 H        -0.414430        -0.980455         0.575397
 H        -0.359758         0.808314         0.446877
 H        -0.346568        -0.154529        -1.039795
 H         1.807968         1.815305         1.165125
 H         1.389795         0.371964         2.238482
 H         4.142202         0.298298         2.110622
 H         4.930769         1.048399        -0.300565
 H         2.960071         2.403677        -0.224056
 H         3.249386         1.812906        -1.925415
 H         4.257953        -1.692785         0.360505
