19
Iteration:   616charge 0 multiplicity 1
 C        -0.013635        -0.309735         0.128843
 C         1.464382         0.079198        -0.088792
 C         1.945213         0.793335         1.266572
 C         3.393100         0.407545         1.153791
 C         4.046885         0.597942        -0.205122
 C         3.135097         1.460093        -1.044227
 O         1.874425         0.944261        -1.109021
 C         3.575389        -0.801161         0.301901
 O         2.188707        -1.119667        -0.110047
 H        -0.049458        -0.895683         1.033210
 H        -0.498592         0.739700         0.211915
 H        -0.321091        -0.923867        -0.767395
 H         1.821328         1.811625         1.359217
 H         1.545663         0.316323         2.178604
 H         4.064830         0.503540         2.001758
 H         5.124016         0.881880        -0.141703
 H         3.145283         2.422715        -0.466050
 H         3.367893         1.647189        -2.029679
 H         4.039381        -1.804761         0.506391
