19
Iteration:  3568charge 0 multiplicity 1
 C        -0.061937        -0.169500        -0.153230
 C         1.464881         0.115988        -0.014061
 C         1.855814         0.497602         1.438676
 C         3.368752         0.398521         1.321035
 C         4.037481         0.720731        -0.117480
 C         3.127875         1.113242        -1.252717
 O         1.814029         1.207692        -0.836229
 C         3.651701        -0.691838         0.307733
 O         2.352587        -1.059070        -0.248511
 H        -0.299613        -0.990846         0.535327
 H        -0.698704         0.695298        -0.123484
 H        -0.215556        -0.604825        -1.119025
 H         1.362349         1.449735         1.705644
 H         1.553259        -0.269159         2.098558
 H         4.129483         0.468838         2.131117
 H         5.043631         0.821237        -0.252555
 H         3.429945         2.098617        -1.803306
 H         3.136200         0.372567        -2.061555
 H         4.369465        -1.596905         0.440862
