19
Iteration:   365charge 0 multiplicity 1
 C         0.026989        -0.290302         0.046765
 C         1.508912         0.078488         0.017734
 C         1.876488         0.688958         1.303595
 C         3.466897         0.508749         1.254791
 C         3.997494         0.492024        -0.182503
 C         3.210658         1.395152        -1.050410
 O         1.784234         1.023912        -1.179614
 C         3.535377        -0.760450         0.262445
 O         2.239080        -1.065492        -0.116764
 H        -0.079612        -1.090682         0.738298
 H        -0.733745         0.417086         0.348994
 H        -0.376322        -0.646043        -0.905034
 H         1.620411         1.693683         1.426225
 H         1.554536         0.123611         2.287081
 H         4.159054         0.790719         2.064760
 H         5.063621         0.661201        -0.101914
 H         3.189605         2.346057        -0.564651
 H         3.546501         1.387036        -2.182009
 H         4.017066        -1.742733         0.339998
