19
Iteration:    85charge 0 multiplicity 1
 C        -0.061241        -0.178812        -0.225531
 C         1.485453         0.139931         0.035085
 C         1.991695         0.633021         1.438598
 C         3.542615         0.444745         1.244233
 C         3.941932         0.618735        -0.165366
 C         3.065947         1.253601        -1.160247
 O         1.692466         1.025857        -0.964407
 C         3.642728        -0.765948         0.270523
 O         2.337742        -1.113057        -0.068904
 H        -0.409802        -0.829291         0.542801
 H        -0.681485         0.744953        -0.190156
 H        -0.227266        -0.614629        -1.216868
 H         1.648194         1.760242         1.603333
 H         1.734499         0.022249         2.295216
 H         4.154028         0.787630         2.028224
 H         4.964654         0.866383        -0.183581
 H         3.227005         2.320823        -1.159054
 H         3.357644         0.858296        -2.181139
 H         4.247298        -1.641665         0.300613
