19
Iteration:  3214charge 0 multiplicity 1
 C        -0.061437        -0.199006        -0.131781
 C         1.431568         0.029198         0.013365
 C         2.014895         0.549354         1.476887
 C         3.480825         0.337114         1.320295
 C         3.962617         0.715656        -0.073339
 C         3.189167         1.404185        -1.144261
 O         1.715599         1.060210        -1.075308
 C         3.622864        -0.722215         0.251948
 O         2.275123        -1.103152        -0.191091
 H        -0.489316        -0.755608         0.676154
 H        -0.421261         0.800101        -0.194580
 H        -0.299214        -0.599605        -1.057868
 H         1.787956         1.540416         1.732613
 H         1.484283        -0.126222         2.139651
 H         4.109222         0.286275         2.218041
 H         5.089340         0.923472        -0.306582
 H         3.381014         2.513545        -1.167565
 H         3.455532         0.996105        -2.118739
 H         4.170180        -1.636762         0.331453
