19
Iteration:  2556
 C         0.005738        -0.362672        -0.139250
 C         1.446279         0.199897         0.033203
 C         1.935214         0.576072         1.451615
 C         3.475644         0.420306         1.251343
 C         4.002459         0.624165        -0.155812
 C         3.221878         1.177144        -1.282249
 O         1.774524         1.298327        -0.925660
 C         3.549990        -0.766571         0.330339
 O         2.223197        -1.001403        -0.188580
 H         0.137034        -1.458085         0.213747
 H        -0.718274         0.015520         0.601871
 H        -0.325700        -0.401878        -1.131139
 H         1.385473         1.444770         1.818883
 H         1.802063        -0.196863         2.222124
 H         4.079260         0.500716         2.135509
 H         5.050232         0.636649        -0.153351
 H         3.500174         2.196158        -1.449590
 H         3.149991         0.433111        -2.165944
 H         4.135663        -1.692519         0.413519
