19
Iteration:  2601charge 0 multiplicity 1
 C        -0.027994        -0.272528        -0.110152
 C         1.510335         0.061186        -0.015603
 C         2.002889         0.643225         1.338385
 C         3.456083         0.419189         1.325039
 C         4.032738         0.637325        -0.055769
 C         3.112881         1.240385        -1.182481
 O         1.676437         1.212792        -0.877135
 C         3.575084        -0.792921         0.263125
 O         2.299683        -1.100045        -0.291208
 H        -0.458886        -0.761602         0.849318
 H        -0.456535         0.733885        -0.153757
 H        -0.303111        -0.866852        -0.979081
 H         1.965431         1.713728         1.497218
 H         1.484308         0.187311         2.194197
 H         4.134983         0.456054         2.132389
 H         5.083543         0.894367        -0.082116
 H         3.185200         2.329103        -1.200273
 H         3.345356         0.554855        -2.077029
 H         4.262833        -1.644320         0.309448
