19
Iteration:  2442charge 0 multiplicity 1
 C        -0.092770        -0.352357        -0.083802
 C         1.464120         0.070581         0.027552
 C         2.054600         0.808079         1.287452
 C         3.530548         0.324218         1.275955
 C         4.075302         0.562296        -0.097242
 C         3.137756         1.448008        -0.999218
 O         1.708722         0.975802        -1.018945
 C         3.561141        -0.739224         0.261688
 O         2.209174        -1.057327        -0.194698
 H        -0.686418        -0.472491         0.755158
 H        -0.550102         0.451909        -0.589635
 H        -0.168577        -1.183317        -0.810020
 H         2.058287         1.881411         1.067942
 H         1.609018         0.685868         2.293810
 H         4.186213         0.191903         2.080433
 H         5.082180         0.714578        -0.493807
 H         3.140435         2.507047        -0.792504
 H         3.463440         1.284186        -2.048420
 H         4.214430        -1.594114         0.437530
