19
Iteration:  4349
 C         0.091941        -0.358009        -0.120032
 C         1.459468         0.131744         0.043139
 C         1.908677         0.691436         1.420949
 C         3.422053         0.292468         1.298385
 C         3.970782         0.704615        -0.024691
 C         3.136814         1.178403        -1.241466
 O         1.740676         1.221796        -0.884195
 C         3.611848        -0.806227         0.267589
 O         2.259144        -0.972447        -0.320333
 H        -0.149181        -1.294154         0.409689
 H        -0.651005         0.293225         0.245114
 H        -0.019597        -0.504283        -1.184243
 H         1.903389         1.812995         1.508512
 H         1.386791         0.214358         2.215710
 H         4.079426         0.370586         2.234510
 H         5.115759         0.910423        -0.038584
 H         3.342922         2.141146        -1.626861
 H         3.249503         0.356762        -2.031142
 H         4.329052        -1.664206         0.362854
