19
Iteration:  2113
 C         0.009778        -0.252962        -0.035466
 C         1.453758         0.136730         0.076677
 C         2.032179         0.744312         1.420293
 C         3.497494         0.354259         1.257711
 C         3.980351         0.677062        -0.165057
 C         3.099857         1.358812        -1.188015
 O         1.780488         0.963601        -1.075779
 C         3.543510        -0.737176         0.204046
 O         2.209054        -1.139570        -0.101926
 H        -0.134592        -1.251117         0.452178
 H        -0.748538         0.464914         0.438925
 H        -0.178924        -0.345790        -1.065213
 H         2.006800         1.824240         1.415200
 H         1.535036         0.365278         2.277634
 H         4.103335         0.464849         2.138183
 H         5.089229         0.598343        -0.231764
 H         3.196807         2.444948        -0.940197
 H         3.523155         1.147688        -2.136694
 H         4.175026        -1.647070         0.199585
