19
Iteration:  2474
 C         0.042151        -0.298486         0.063377
 C         1.493579         0.169578        -0.073930
 C         1.962218         0.713992         1.253581
 C         3.456633         0.363932         1.205975
 C         3.950844         0.586255        -0.181256
 C         3.154437         1.541727        -0.942774
 O         1.844957         0.955956        -1.183479
 C         3.533644        -0.836335         0.275015
 O         2.163644        -1.128046        -0.079620
 H        -0.030634        -1.018309         0.886691
 H        -0.656503         0.503750         0.069574
 H        -0.186874        -0.792525        -0.913729
 H         1.904393         1.792042         1.420450
 H         1.504336         0.203835         2.124287
 H         4.145765         0.560880         1.977378
 H         5.052647         0.686831        -0.132282
 H         3.135691         2.492281        -0.468579
 H         3.524378         1.771710        -1.904102
 H         4.150715        -1.714706         0.488540
