19
Iteration:  3973charge 0 multiplicity 1
 C         0.003427        -0.410295        -0.150963
 C         1.474703         0.194590         0.062151
 C         1.910275         0.595792         1.443369
 C         3.438528         0.351375         1.359770
 C         3.974265         0.649230        -0.112410
 C         3.226880         1.169849        -1.301413
 O         1.827679         1.248402        -0.871363
 C         3.512810        -0.709294         0.312422
 O         2.231050        -0.934798        -0.296431
 H         0.076522        -1.385482         0.368917
 H        -0.824645         0.067003         0.389279
 H        -0.147263        -0.842372        -1.171732
 H         1.618388         1.689770         1.538278
 H         1.490256        -0.108170         2.205643
 H         4.028752         0.284128         2.247083
 H         5.184520         0.685223        -0.175843
 H         3.552033         2.168682        -1.594429
 H         3.418769         0.650008        -2.240797
 H         3.977874        -1.673101         0.314848
