19
Iteration:  4300charge 0 multiplicity 1
 C        -0.069247        -0.223623        -0.124501
 C         1.423725         0.078676         0.008707
 C         1.937331         0.542471         1.398224
 C         3.485530         0.429947         1.256115
 C         4.049447         0.663982        -0.169707
 C         3.184153         1.467894        -1.058603
 O         1.849136         0.990791        -1.105947
 C         3.538000        -0.742961         0.211431
 O         2.218379        -1.126495        -0.073118
 H        -0.250048        -1.165752         0.499055
 H        -0.650195         0.655270         0.355642
 H        -0.432633        -0.567678        -1.115122
 H         1.559298         1.516555         1.717962
 H         1.632620        -0.226862         2.189196
 H         4.098636         0.578668         2.104308
 H         5.129414         0.900608        -0.021704
 H         3.391919         2.599346        -0.688709
 H         3.434970         1.482988        -2.176467
 H         4.225843        -1.575619         0.283449
