19
Iteration:  4372
 C        -0.074778        -0.302457        -0.123724
 C         1.435188         0.126586        -0.039389
 C         1.898154         0.482416         1.496161
 C         3.420408         0.434919         1.357463
 C         4.053649         0.650766        -0.162217
 C         3.201192         1.190236        -1.238775
 O         1.779282         1.218918        -0.909862
 C         3.618040        -0.680672         0.278266
 O         2.295340        -0.996900        -0.272086
 H        -0.333149        -1.019659         0.723889
 H        -0.772715         0.471525         0.107093
 H        -0.295613        -0.760770        -1.056098
 H         1.505217         1.494042         1.864469
 H         1.603358        -0.321750         2.131043
 H         4.057526         0.457208         2.265879
 H         5.237535         0.926589        -0.256227
 H         3.336328         2.178556        -1.528566
 H         3.431034         0.425314        -2.068287
 H         4.222771        -1.583082         0.460633
