19
Iteration:  4631charge 0 multiplicity 1
 C        -0.008816        -0.116995        -0.113385
 C         1.468836        -0.038108         0.049747
 C         1.938982         0.574989         1.344731
 C         3.425233         0.399157         1.223822
 C         3.991616         0.664500        -0.199068
 C         3.106405         1.474808        -1.016104
 O         1.853303         0.953453        -0.977217
 C         3.568011        -0.695766         0.254363
 O         2.241941        -1.173908        -0.207560
 H        -0.409067        -0.853229         0.763689
 H        -0.320340         0.913715         0.215634
 H        -0.243636        -0.335316        -1.137844
 H         1.403189         1.633016         1.457820
 H         1.674011        -0.093422         2.207274
 H         4.161668         0.340328         2.004337
 H         5.152397         0.778349        -0.203683
 H         3.342370         2.548466        -0.673052
 H         3.351694         1.547523        -2.137654
 H         4.286498        -1.487139         0.474372
