19
Iteration:  4064
 C        -0.067446        -0.188867        -0.108317
 C         1.442359         0.082219        -0.081555
 C         2.009491         0.684399         1.345868
 C         3.522183         0.335110         1.281546
 C         3.988036         0.627609        -0.123768
 C         3.103462         1.590269        -0.891114
 O         1.886118         0.848872        -1.210402
 C         3.493812        -0.775559         0.280514
 O         2.226083        -1.136394        -0.109780
 H        -0.153403        -0.662303         0.861616
 H        -0.540064         0.776547        -0.061483
 H        -0.433569        -0.915658        -0.770796
 H         1.739412         1.689939         1.550686
 H         1.474233        -0.011201         1.996804
 H         4.181388         0.485081         2.171328
 H         5.026200         0.737120        -0.510431
 H         2.995696         2.450198        -0.281988
 H         3.537357         1.959249        -1.793643
 H         4.282954        -1.555488         0.062678
