19
Iteration:   418
 C        -0.006122        -0.199138        -0.090069
 C         1.465446         0.077504         0.027195
 C         1.988527         0.767814         1.348535
 C         3.478485         0.340536         1.275878
 C         4.007959         0.642973        -0.130157
 C         3.076408         1.338484        -1.081868
 O         1.743919         0.899872        -1.095112
 C         3.585052        -0.731518         0.222822
 O         2.284399        -1.088610        -0.074436
 H        -0.220338        -0.894645         0.762824
 H        -0.564717         0.705287         0.041578
 H        -0.271023        -0.511829        -1.100820
 H         1.922251         1.882335         1.439333
 H         1.415019         0.222629         2.211810
 H         4.029522         0.351257         2.234527
 H         5.009452         0.917531        -0.454515
 H         3.116729         2.454956        -0.796088
 H         3.503044         1.302609        -2.154832
 H         4.264189        -1.632319         0.208954
