19
Iteration:  1998
 C        -0.004144        -0.300445        -0.050218
 C         1.449762         0.090730         0.122387
 C         1.961985         0.641251         1.473230
 C         3.454565         0.431213         1.291384
 C         4.048234         0.590182        -0.213003
 C         3.163621         1.141029        -1.296410
 O         1.740095         1.194240        -0.886351
 C         3.538824        -0.724605         0.283933
 O         2.256704        -0.972924        -0.299178
 H        -0.446510        -0.837598         0.836620
 H        -0.686723         0.404109        -0.463470
 H         0.069564        -1.071673        -0.833562
 H         1.731337         1.720182         1.671725
 H         1.622977         0.004533         2.376212
 H         4.260501         0.360965         2.040293
 H         5.045101         0.969337        -0.223458
 H         3.351386         2.222956        -1.519808
 H         3.430383         0.472521        -2.258741
 H         4.122755        -1.579673         0.556282
