19
Iteration:  4980
 C         0.050898        -0.169732        -0.155112
 C         1.538589         0.072413         0.064193
 C         1.915663         0.475118         1.558686
 C         3.386984         0.309125         1.302537
 C         3.993206         0.742662        -0.141028
 C         3.108908         1.196397        -1.316793
 O         1.743171         1.202400        -0.854348
 C         3.584337        -0.712305         0.259959
 O         2.295254        -1.038060        -0.257071
 H        -0.395169        -0.839979         0.524839
 H        -0.406361         0.835391        -0.182264
 H         0.053296        -0.694704        -1.152363
 H         1.554325         1.533174         1.826050
 H         1.555387        -0.327933         2.227819
 H         4.106679         0.197984         2.110034
 H         5.060536         1.119220        -0.187671
 H         3.343374         2.212613        -1.637829
 H         3.182232         0.622579        -2.233807
 H         4.193983        -1.616440         0.173978
