19
Iteration:  2919charge 0 multiplicity 1
 C        -0.016281        -0.295858        -0.154282
 C         1.472857         0.079282         0.060355
 C         1.967149         0.700546         1.310895
 C         3.458207         0.393898         1.259200
 C         4.055271         0.601558        -0.133158
 C         3.148662         1.354931        -1.090302
 O         1.716739         1.114905        -0.904324
 C         3.534424        -0.763667         0.256958
 O         2.298109        -1.122540        -0.212779
 H        -0.274989        -1.191654         0.380571
 H        -0.573753         0.516729         0.350113
 H        -0.324369        -0.297577        -1.188475
 H         1.734305         1.738412         1.221361
 H         1.592189         0.162514         2.231793
 H         4.005116         0.552472         2.192211
 H         5.128080         0.742196        -0.275498
 H         3.421925         2.403211        -0.951408
 H         3.326407         0.982339        -2.071304
 H         4.090682        -1.707880         0.417693
