19
Iteration:   293
 C        -0.003218        -0.266734        -0.059351
 C         1.465013         0.142202        -0.020930
 C         1.939278         0.602112         1.392686
 C         3.469742         0.462288         1.228262
 C         4.059721         0.618440        -0.141566
 C         3.170024         1.237355        -1.234624
 O         1.751488         1.111432        -0.959658
 C         3.528518        -0.714403         0.334701
 O         2.306124        -1.081519        -0.180403
 H        -0.247986        -0.782439         0.894029
 H        -0.843137         0.548616        -0.069145
 H        -0.386293        -0.991680        -0.870235
 H         1.467993         1.643520         1.562108
 H         1.631577        -0.040413         2.174530
 H         4.008426         0.297445         2.176950
 H         5.131919         0.844146        -0.384311
 H         3.274709         2.367141        -1.217891
 H         3.246137         0.825639        -2.205622
 H         4.058730        -1.533180         0.736056
