19
Iteration:  2538charge 0 multiplicity 1
 C        -0.027258        -0.198885        -0.121265
 C         1.434417         0.034465        -0.002580
 C         1.951984         0.579251         1.417897
 C         3.446856         0.445534         1.264570
 C         4.038694         0.598930        -0.132913
 C         3.135787         1.236834        -1.262467
 O         1.752823         1.175320        -0.868049
 C         3.611149        -0.685685         0.325638
 O         2.302422        -1.131726        -0.199455
 H        -0.381777        -1.258752        -0.004206
 H        -0.582771         0.414272         0.591809
 H        -0.234888         0.157710        -1.180387
 H         1.646280         1.612985         1.561501
 H         1.378253        -0.049610         2.124829
 H         4.065229         0.516751         2.121815
 H         5.090044         0.851708        -0.328363
 H         3.377482         2.394457        -1.447818
 H         3.228322         0.712609        -2.206534
 H         4.239705        -1.546625         0.534791
