19
Iteration:  1939charge 0 multiplicity 1
 C         0.015746        -0.191482        -0.141757
 C         1.420038         0.157892         0.098775
 C         1.991804         0.626315         1.509593
 C         3.504409         0.420598         1.230665
 C         4.045768         0.645820        -0.168475
 C         3.147569         1.201011        -1.254569
 O         1.672036         0.971657        -0.934100
 C         3.578216        -0.701152         0.250133
 O         2.237232        -1.010440        -0.164471
 H        -0.193477        -1.057025         0.442593
 H        -0.685218         0.653805         0.145993
 H         0.007048        -0.415476        -1.221525
 H         1.641849         1.590698         1.863710
 H         1.667700        -0.140972         2.223221
 H         4.204122         0.408893         2.085215
 H         5.108856         0.902708        -0.415488
 H         3.281723         2.267440        -1.329622
 H         3.565217         0.750259        -2.232856
 H         4.211535        -1.617490         0.276511
