19
Iteration:   771
 C        -0.006562        -0.210914        -0.016953
 C         1.469375         0.114584         0.008107
 C         1.977350         0.677839         1.429584
 C         3.471593         0.425127         1.303492
 C         4.003502         0.579002        -0.172504
 C         3.128422         1.267981        -1.240373
 O         1.741998         0.999030        -1.023321
 C         3.576503        -0.718355         0.335139
 O         2.278155        -1.060192        -0.189854
 H        -0.215458        -1.011239         0.806483
 H        -0.562873         0.714427         0.258026
 H        -0.358912        -0.517630        -1.024527
 H         1.701626         1.663847         1.416436
 H         1.330803         0.165024         2.105149
 H         4.179478         0.567680         2.134576
 H         5.069374         0.671110        -0.338780
 H         3.226427         2.398942        -1.211646
 H         3.496604         0.939257        -2.223575
 H         4.175574        -1.610492         0.279483
