19
Iteration:   709
 C         0.028073        -0.267206        -0.070075
 C         1.503743         0.095268         0.055062
 C         1.929042         0.642716         1.392265
 C         3.442587         0.604452         1.150489
 C         4.064409         0.543053        -0.208801
 C         3.153987         1.164750        -1.222110
 O         1.715346         1.183585        -0.872707
 C         3.548580        -0.809396         0.345887
 O         2.255151        -1.098336        -0.199261
 H        -0.316155        -1.148492         0.479926
 H        -0.561264         0.545725         0.154435
 H        -0.140141        -0.576230        -1.106974
 H         1.608846         1.775024         1.556037
 H         1.651452        -0.057367         2.227538
 H         4.142221         0.849102         1.951067
 H         5.124918         0.898599        -0.154068
 H         3.303657         2.219947        -1.333481
 H         3.240027         0.613699        -2.204425
 H         4.178658        -1.537119         0.818354
