19
Iteration:  2527charge 0 multiplicity 1
 C        -0.041501        -0.099048        -0.152379
 C         1.509174         0.009006         0.065357
 C         1.900670         0.616960         1.375333
 C         3.424928         0.415000         1.256325
 C         4.017410         0.704734        -0.152699
 C         3.124817         1.226545        -1.222249
 O         1.726380         1.050916        -0.864564
 C         3.642957        -0.775289         0.298247
 O         2.319348        -1.115744        -0.211087
 H        -0.399458        -1.176477        -0.002527
 H        -0.488819         0.568655         0.591138
 H        -0.404705         0.269194        -1.155749
 H         1.506697         1.623801         1.365139
 H         1.787040         0.127076         2.361271
 H         4.067826         0.538794         2.074667
 H         5.078160         0.865233        -0.034592
 H         3.271039         2.407960        -1.214101
 H         3.360978         0.866617        -2.222950
 H         4.355180        -1.606560         0.384054
