19
Iteration:  4740charge 0 multiplicity 1
 C         0.051391        -0.182154        -0.100195
 C         1.482040         0.173112         0.038870
 C         1.986542         0.485836         1.502079
 C         3.415037         0.361812         1.306358
 C         3.942348         0.692935        -0.076516
 C         3.126967         1.260715        -1.189840
 O         1.751825         1.099666        -0.942154
 C         3.592109        -0.706722         0.222931
 O         2.274443        -1.077624        -0.300635
 H        -0.591663        -0.948896         0.553696
 H        -0.446557         0.838701        -0.186498
 H        -0.011102        -0.661877        -1.081485
 H         1.693526         1.564538         1.767231
 H         1.587437        -0.305798         2.164924
 H         4.055356         0.517404         2.152430
 H         5.069817         0.991005        -0.378469
 H         3.370526         2.288235        -1.316899
 H         3.287387         0.548986        -2.051701
 H         4.213851        -1.579483         0.366943
