19
Iteration:    43
 C         0.013338        -0.305817         0.007975
 C         1.432510         0.181673         0.016920
 C         1.942434         0.680738         1.355154
 C         3.392577         0.479658         1.249172
 C         3.973068         0.597539        -0.085387
 C         3.184941         1.227045        -1.169210
 O         1.795293         1.041908        -0.986813
 C         3.590185        -0.773563         0.227719
 O         2.274136        -1.054074        -0.194322
 H        -0.019593        -1.027295         0.697969
 H        -0.613170         0.522145         0.266526
 H        -0.317750        -0.627873        -0.938833
 H         1.720027         1.827715         1.385629
 H         1.507548         0.060331         2.127576
 H         4.000000         0.703752         2.089818
 H         4.989390         0.901347        -0.204399
 H         3.355975         2.272266        -1.268835
 H         3.433964         0.730058        -2.169816
 H         4.290001        -1.587386         0.233475
