19
Iteration:  1941charge 0 multiplicity 1
 C         0.029436        -0.186603        -0.163799
 C         1.429218         0.159118         0.119438
 C         1.971423         0.625145         1.511217
 C         3.497570         0.428133         1.237693
 C         4.050660         0.653470        -0.188219
 C         3.145493         1.198265        -1.261889
 O         1.673933         0.990336        -0.927162
 C         3.564071        -0.721720         0.237671
 O         2.245924        -1.011441        -0.157744
 H        -0.233839        -1.076747         0.455912
 H        -0.701626         0.608487         0.147916
 H        -0.002679        -0.470119        -1.163676
 H         1.678492         1.582924         1.890297
 H         1.697561        -0.185440         2.294122
 H         4.155133         0.396292         2.062988
 H         5.116482         0.876738        -0.442725
 H         3.287827         2.264881        -1.343543
 H         3.563566         0.707003        -2.239694
 H         4.267183        -1.603729         0.343559
