19
Iteration:  4887charge 0 multiplicity 1
 C        -0.098858        -0.187483        -0.053013
 C         1.426192         0.033043        -0.047935
 C         2.046558         0.609083         1.291466
 C         3.544355         0.326531         1.192425
 C         4.056286         0.664420        -0.144839
 C         3.124027         1.583758        -0.915105
 O         1.800136         0.926864        -1.097444
 C         3.530346        -0.768878         0.261302
 O         2.206263        -1.134125        -0.110193
 H        -0.463158        -1.071123         0.506698
 H        -0.634804         0.700815         0.239408
 H        -0.141270        -0.397223        -1.150043
 H         1.760679         1.623590         1.350963
 H         1.767278         0.046322         2.200769
 H         4.067482         0.376940         2.128613
 H         5.102866         0.804942        -0.322181
 H         2.933729         2.470886        -0.420734
 H         3.546224         1.907877        -1.830540
 H         4.218001        -1.655026         0.151842
