19
Iteration:  3188
 C         0.078846        -0.273172        -0.112979
 C         1.453045         0.167443         0.017421
 C         1.906671         0.532678         1.458666
 C         3.410352         0.379324         1.300090
 C         4.002620         0.677799        -0.107160
 C         3.219023         1.273261        -1.225047
 O         1.730078         1.146771        -0.888309
 C         3.597330        -0.755098         0.242005
 O         2.259577        -1.022966        -0.251452
 H        -0.218994        -0.903462         0.797641
 H        -0.601488         0.604167        -0.291222
 H        -0.062764        -0.934799        -1.039031
 H         1.541078         1.507028         1.853509
 H         1.427571        -0.249306         2.059862
 H         4.000450         0.454426         2.230261
 H         5.002301         0.907402        -0.202957
 H         3.485831         2.348371        -1.553607
 H         3.252443         0.647965        -2.150348
 H         4.131903        -1.751719         0.207972
