19
Iteration:  2705
 C         0.004974        -0.309563        -0.066524
 C         1.470796         0.152175        -0.017813
 C         1.956683         0.694276         1.312154
 C         3.463748         0.415572         1.288712
 C         4.045998         0.561399        -0.098291
 C         3.194209         1.406953        -1.065287
 O         1.763331         1.026287        -1.025048
 C         3.480632        -0.783025         0.253284
 O         2.228609        -1.068200        -0.204184
 H         0.045736        -1.197881         0.631777
 H        -0.677278         0.443817         0.372858
 H        -0.343346        -0.605464        -1.023395
 H         1.734521         1.756717         1.502290
 H         1.763332         0.002503         2.163214
 H         4.164576         0.387642         2.149510
 H         5.093855         0.815293        -0.196038
 H         3.232765         2.420933        -0.923558
 H         3.373075         1.286730        -2.137302
 H         4.140704        -1.664955         0.396854
