19
Iteration:  4472
 C         0.009986        -0.314104         0.032844
 C         1.453995         0.094589        -0.050117
 C         1.979764         0.660832         1.192240
 C         3.420157         0.378920         1.244680
 C         4.006454         0.544102        -0.143206
 C         3.171851         1.585654        -0.882536
 O         1.789790         1.022827        -1.124395
 C         3.585554        -0.805772         0.257370
 O         2.219649        -1.146601        -0.185875
 H        -0.109109        -1.073701         0.776060
 H        -0.608199         0.547373         0.433193
 H        -0.517055        -0.574974        -0.914566
 H         1.829187         1.793977         1.182241
 H         1.388895         0.294215         2.054247
 H         4.041714         0.541959         2.056640
 H         5.210133         0.657631        -0.124446
 H         3.174857         2.579095        -0.349571
 H         3.544328         1.794223        -1.932192
 H         4.167667        -1.691702         0.504253
