19
Iteration:   305
 C        -0.074672        -0.243840        -0.131674
 C         1.443220         0.051842         0.051456
 C         2.009377         0.671239         1.443975
 C         3.464696         0.437156         1.274939
 C         3.983563         0.629046        -0.180506
 C         3.129773         1.279617        -1.229916
 O         1.729862         1.094887        -0.966718
 C         3.594947        -0.758715         0.365612
 O         2.298330        -1.121024        -0.196221
 H        -0.470703        -0.863823         0.724772
 H        -0.518744         0.772128        -0.221924
 H        -0.117107        -0.808640        -1.077536
 H         1.784143         1.798608         1.596822
 H         1.628043         0.095534         2.242774
 H         4.227303         0.692052         2.003199
 H         5.066636         0.889857        -0.150760
 H         3.394036         2.365302        -1.342075
 H         3.486971         0.883617        -2.183408
 H         4.260002        -1.578415         0.439179
