19
Iteration:  3813
 C         0.021048        -0.146911        -0.153804
 C         1.483238         0.090479         0.037125
 C         1.893744         0.543035         1.466284
 C         3.415075         0.387988         1.260177
 C         3.940209         0.683994        -0.106223
 C         3.196850         1.385200        -1.166529
 O         1.803525         1.009832        -1.014500
 C         3.599981        -0.732110         0.256788
 O         2.250524        -1.117110        -0.178722
 H        -0.289813        -0.928614         0.649743
 H        -0.650901         0.635613         0.182343
 H        -0.209202        -0.540011        -1.101365
 H         1.606950         1.514446         1.760060
 H         1.476796        -0.167643         2.215031
 H         4.087292         0.564003         2.088580
 H         5.058190         0.789286        -0.082340
 H         3.604318         2.467997        -1.165128
 H         3.431857         1.130664        -2.230966
 H         4.223689        -1.663310         0.196601
