19
Iteration:  4599
 C         0.011573        -0.298655        -0.135207
 C         1.431854         0.148948        -0.015801
 C         2.007985         0.572666         1.405086
 C         3.513792         0.254603         1.324939
 C         3.966774         0.666942        -0.029589
 C         3.150454         1.288777        -1.132080
 O         1.716230         1.167397        -1.029501
 C         3.602000        -0.710467         0.262802
 O         2.237031        -1.007694        -0.252967
 H        -0.306155        -0.901847         0.825009
 H        -0.637604         0.613306        -0.055066
 H        -0.318370        -0.989373        -0.869836
 H         1.707512         1.669450         1.725220
 H         1.631046        -0.171706         2.130792
 H         4.193494         0.349737         2.142699
 H         5.129684         0.904635        -0.058348
 H         3.385104         2.388330        -1.166968
 H         3.260713         0.686342        -2.045384
 H         4.293442        -1.542248         0.272354
