19
Iteration:  3192
 C         0.041629        -0.251304        -0.119320
 C         1.457148         0.178741         0.009837
 C         1.912916         0.512290         1.456614
 C         3.410570         0.366091         1.319797
 C         3.992134         0.678592        -0.079705
 C         3.209950         1.281288        -1.243487
 O         1.732881         1.130757        -0.912570
 C         3.587779        -0.767807         0.230269
 O         2.261969        -1.024405        -0.221268
 H        -0.124337        -0.813652         0.773522
 H        -0.617715         0.551039        -0.271156
 H         0.077522        -0.840790        -0.968761
 H         1.577234         1.454844         1.773720
 H         1.487018        -0.293006         2.069551
 H         4.065206         0.495267         2.216084
 H         5.062639         1.038606        -0.286123
 H         3.457801         2.331055        -1.474753
 H         3.302903         0.677074        -2.133863
 H         4.252012        -1.641569         0.107824
