19
Iteration:  1655
 C         0.046699        -0.267598         0.037504
 C         1.469193         0.069194        -0.059446
 C         1.937998         0.763544         1.313943
 C         3.462019         0.421715         1.180572
 C         4.015740         0.556226        -0.191646
 C         3.140782         1.452614        -1.025143
 O         1.770374         0.976971        -1.078209
 C         3.555009        -0.758733         0.286510
 O         2.242825        -1.166476        -0.127425
 H        -0.149132        -0.665509         1.059974
 H        -0.528753         0.651487        -0.045994
 H        -0.412018        -0.941559        -0.747079
 H         1.875468         1.861228         1.506815
 H         1.387681         0.241953         2.145512
 H         4.199179         0.533283         1.924622
 H         5.060504         0.723471        -0.310540
 H         3.129559         2.460629        -0.527625
 H         3.314558         1.578825        -2.095958
 H         4.189508        -1.637485         0.413834
