19
Iteration:   921
 C        -0.070410        -0.240396        -0.112642
 C         1.410383         0.162636         0.124061
 C         2.030116         0.680116         1.453119
 C         3.516319         0.340994         1.286978
 C         4.041560         0.686844        -0.093304
 C         3.136018         1.204080        -1.308606
 O         1.654991         1.095556        -1.009522
 C         3.615191        -0.727471         0.243446
 O         2.284366        -1.097940        -0.122600
 H        -0.318005        -1.263843         0.212018
 H        -0.820795         0.495387         0.056894
 H         0.077879        -0.398862        -1.157597
 H         1.838029         1.872919         1.503316
 H         1.555357         0.121813         2.313963
 H         4.142483         0.360218         2.183375
 H         5.109018         0.942016        -0.283869
 H         3.438289         2.243909        -1.542606
 H         3.239787         0.560725        -2.180680
 H         4.360148        -1.547193         0.447003
