19
Iteration:   410
 C        -0.024928        -0.261867        -0.031267
 C         1.518953         0.064872         0.028895
 C         2.017238         0.807852         1.292017
 C         3.474019         0.322404         1.347719
 C         3.939196         0.653878        -0.104565
 C         3.110004         1.348194        -1.026642
 O         1.734456         0.920735        -1.156830
 C         3.644854        -0.714437         0.201523
 O         2.231825        -1.093949        -0.126308
 H        -0.515019        -0.904725         0.640194
 H        -0.465173         0.703522         0.234115
 H        -0.462060        -0.577745        -0.989643
 H         2.017711         1.867600         1.223014
 H         1.508582         0.561392         2.296264
 H         4.127792         0.312564         2.209020
 H         5.023351         0.803416        -0.177945
 H         3.055733         2.416363        -0.860703
 H         3.631366         1.092826        -2.048394
 H         4.270641        -1.536028         0.057096
