19
Iteration:  4652charge 0 multiplicity 1
 C        -0.059418        -0.152507        -0.130193
 C         1.448961         0.133602        -0.010637
 C         2.016937         0.627192         1.334222
 C         3.552395         0.391799         1.265704
 C         4.012139         0.627136        -0.141907
 C         3.091349         1.548248        -0.925383
 O         1.738596         0.933326        -1.137579
 C         3.589144        -0.839911         0.233385
 O         2.262247        -1.210201        -0.096419
 H        -0.493533        -1.112664         0.464654
 H        -0.625680         0.719478         0.292351
 H        -0.214337        -0.314120        -1.182740
 H         1.808077         1.754841         1.324799
 H         1.560181         0.104548         2.216079
 H         4.099399         0.375865         2.199394
 H         5.142169         0.745926        -0.208058
 H         2.954681         2.543736        -0.394503
 H         3.374464         1.789547        -1.990428
 H         4.370485        -1.588846         0.064439
