19
Iteration:  3814charge 0 multiplicity 1
 C         0.020268        -0.152001        -0.154735
 C         1.488137         0.085072         0.035200
 C         1.898774         0.549426         1.464375
 C         3.418191         0.380483         1.267921
 C         3.942528         0.683277        -0.107591
 C         3.194445         1.389048        -1.168727
 O         1.810796         1.012968        -1.022091
 C         3.595937        -0.731272         0.252100
 O         2.243014        -1.120754        -0.177531
 H        -0.264715        -0.932364         0.690312
 H        -0.649392         0.639020         0.178228
 H        -0.221124        -0.546740        -1.088275
 H         1.584292         1.537422         1.768940
 H         1.484309        -0.158809         2.231980
 H         4.074238         0.565775         2.107371
 H         4.992556         0.820650        -0.079721
 H         3.618147         2.464701        -1.131848
 H         3.407000         1.161932        -2.215012
 H         4.220739        -1.650028         0.215012
