19
Iteration:  3876charge 0 multiplicity 1
 C         0.027991        -0.277763        -0.077315
 C         1.463024         0.042997         0.028505
 C         1.982999         0.758128         1.351206
 C         3.471656         0.294570         1.271856
 C         3.995671         0.589265        -0.138900
 C         3.161964         1.582453        -0.948619
 O         1.800536         0.975240        -1.161418
 C         3.473597        -0.803974         0.267138
 O         2.215323        -1.114102        -0.176976
 H        -0.270071        -0.838395         0.817089
 H        -0.523479         0.665561        -0.233371
 H        -0.072805        -1.054647        -0.881484
 H         1.836843         1.865692         1.226970
 H         1.520959         0.362017         2.269216
 H         4.066164         0.189076         2.176338
 H         5.221590         0.655490        -0.400912
 H         3.088856         2.561710        -0.479463
 H         3.486703         1.768447        -2.041613
 H         4.271790        -1.561364         0.456953
