19
Iteration:  3057
 C         0.085998        -0.287303        -0.025681
 C         1.427146         0.174901        -0.057061
 C         2.023859         0.785091         1.335877
 C         3.477310         0.281540         1.281998
 C         3.985385         0.600576        -0.110552
 C         3.087225         1.527281        -0.901123
 O         1.808390         0.920250        -1.195945
 C         3.570388        -0.770668         0.189893
 O         2.183420        -1.137816        -0.131923
 H        -0.159642        -0.979634         0.734620
 H        -0.724364         0.473686         0.119311
 H        -0.251194        -0.718201        -1.026886
 H         1.887228         1.887455         1.249718
 H         1.388808         0.341235         2.068592
 H         4.177490         0.140600         2.063787
 H         5.009587         0.642713        -0.144742
 H         2.973752         2.462114        -0.265769
 H         3.433623         1.662388        -1.909741
 H         4.314839        -1.547842         0.336592
