19
Iteration:   431
 C         0.005009        -0.179497        -0.112834
 C         1.475207         0.166282         0.057867
 C         1.984322         0.633581         1.378994
 C         3.487774         0.445628         1.224793
 C         4.058864         0.625778        -0.227851
 C         3.103628         1.448136        -1.145179
 O         1.754013         0.909501        -1.057433
 C         3.564607        -0.763123         0.345270
 O         2.223848        -1.163107        -0.084734
 H        -0.404988        -0.923374         0.537387
 H        -0.628304         0.690419        -0.022168
 H        -0.074382        -0.733871        -1.057757
 H         1.575344         1.622676         1.520058
 H         1.616254        -0.003657         2.322309
 H         4.236310         0.523242         2.004608
 H         5.166194         0.714630        -0.136597
 H         3.010861         2.540018        -0.874911
 H         3.313639         1.301739        -2.312108
 H         4.197271        -1.574156         0.588322
