19
Iteration:   967charge 0 multiplicity 1
 C        -0.015568        -0.313772        -0.012850
 C         1.437764         0.148075         0.097012
 C         1.935707         0.621606         1.477665
 C         3.387115         0.520893         1.208469
 C         4.103690         0.537483        -0.193292
 C         3.219562         1.253557        -1.298895
 O         1.765370         1.132446        -0.971560
 C         3.528357        -0.728943         0.346297
 O         2.265056        -1.047142        -0.253831
 H        -0.218930        -1.026861         0.863957
 H        -0.552021         0.590862         0.100452
 H        -0.212102        -0.910128        -0.952063
 H         1.483941         1.649182         1.725716
 H         1.743411        -0.205151         2.251652
 H         4.061384         0.466434         2.063101
 H         5.205313         0.806774        -0.100466
 H         3.286504         2.320565        -1.394510
 H         3.279572         0.785992        -2.299729
 H         4.083212        -1.673336         0.400603
