19
Iteration:   880
 C        -0.039705        -0.194699         0.071351
 C         1.412419         0.099193         0.065147
 C         1.956701         0.651058         1.312113
 C         3.431657         0.447362         1.219951
 C         4.054245         0.635138        -0.249833
 C         3.199976         1.387664        -1.148505
 O         1.745026         1.083825        -1.064331
 C         3.568627        -0.776163         0.305265
 O         2.298754        -1.260777        -0.146152
 H        -0.461437        -0.966250         0.855310
 H        -0.692385         0.632523         0.270034
 H        -0.385156        -0.581105        -0.938519
 H         1.569968         1.638103         1.330007
 H         1.548586         0.113148         2.167721
 H         4.073511         0.780895         2.042042
 H         5.172641         0.793409        -0.321982
 H         3.351164         2.437835        -0.988584
 H         3.786581         1.250642        -2.160405
 H         4.136246        -1.642144         0.749350
