19
Iteration:  3938charge 0 multiplicity 1
 C         0.016744        -0.176361        -0.158650
 C         1.456083         0.094239         0.021138
 C         1.923693         0.571360         1.363614
 C         3.416328         0.387779         1.290639
 C         3.950990         0.629392        -0.086800
 C         3.135499         1.180458        -1.199633
 O         1.746777         1.151752        -0.834531
 C         3.609954        -0.734591         0.321219
 O         2.351701        -1.065807        -0.299681
 H        -0.172403        -1.020459         0.421040
 H        -0.591367         0.694148         0.163110
 H        -0.266375        -0.225492        -1.290367
 H         1.400230         1.583680         1.465691
 H         1.640227         0.004180         2.249504
 H         4.137206         0.519627         2.107291
 H         4.907835         0.977745        -0.189572
 H         3.305111         2.297492        -1.269156
 H         3.418192         0.580424        -2.037160
 H         4.342140        -1.584986         0.459441
