19
Iteration:  4069
 C        -0.085785        -0.195599        -0.079098
 C         1.441782         0.075300        -0.147094
 C         2.005089         0.691731         1.310074
 C         3.515386         0.378151         1.312542
 C         3.994170         0.604171        -0.110588
 C         3.125552         1.576949        -0.879183
 O         1.849777         0.911656        -1.191331
 C         3.539506        -0.805225         0.253828
 O         2.233572        -1.185473        -0.094087
 H        -0.337768        -0.721985         0.879959
 H        -0.620384         0.786495        -0.011280
 H        -0.327076        -0.981604        -0.933532
 H         1.863766         1.823670         1.471496
 H         1.542709         0.134889         2.157996
 H         4.205386         0.496367         2.121379
 H         5.035380         0.658998        -0.450516
 H         2.794840         2.524129        -0.282859
 H         3.653629         1.947625        -1.814823
 H         4.235729        -1.578693         0.043848
