19
Iteration:  1188
 C         0.016602        -0.250765        -0.038498
 C         1.517471         0.095456         0.043640
 C         1.977736         0.722117         1.324514
 C         3.446839         0.408067         1.273821
 C         4.014851         0.639282        -0.155443
 C         3.099593         1.290759        -1.181652
 O         1.709038         1.092121        -0.910745
 C         3.476072        -0.794680         0.332176
 O         2.336585        -1.159123        -0.262542
 H        -0.229813        -0.950191         0.735690
 H        -0.567969         0.720271        -0.103491
 H        -0.045376        -0.656527        -1.009678
 H         1.777653         1.766377         1.339411
 H         1.427749         0.240117         2.274890
 H         4.155784         0.547395         2.080139
 H         5.038374         0.760693        -0.424570
 H         3.349468         2.412186        -1.083051
 H         3.289779         1.061800        -2.219659
 H         4.288977        -1.530251         0.549960
