19
Iteration:  1701
 C         0.021417        -0.154292        -0.063294
 C         1.472779         0.101230         0.029246
 C         2.013470         0.725862         1.393000
 C         3.578017         0.330093         1.222971
 C         3.996245         0.702776        -0.170709
 C         3.084043         1.493849        -1.033269
 O         1.770781         0.849222        -1.210477
 C         3.569210        -0.772109         0.174867
 O         2.210029        -1.211635         0.035617
 H        -0.295619        -0.853532         0.702577
 H        -0.653107         0.768622         0.146682
 H        -0.451646        -0.457287        -1.085719
 H         1.547465         1.703453         1.341186
 H         1.462736         0.206685         2.242654
 H         4.157847         0.436176         2.195339
 H         5.036420         1.028032        -0.332624
 H         2.791841         2.530338        -0.691379
 H         3.473170         1.580291        -2.022408
 H         4.227735        -1.661179         0.213444
