19
Iteration:  4876
 C        -0.069755        -0.123449        -0.087353
 C         1.481284         0.051839         0.029906
 C         1.976357         0.629732         1.283472
 C         3.515691         0.401426         1.223300
 C         4.063346         0.610736        -0.208365
 C         3.072501         1.567556        -0.862383
 O         1.809615         0.919719        -1.115691
 C         3.586966        -0.791743         0.250449
 O         2.226105        -1.209363        -0.164094
 H        -0.267228        -0.995658         0.556809
 H        -0.551234         0.743409         0.344173
 H        -0.640889        -0.275183        -1.069133
 H         1.678448         1.639814         1.471680
 H         1.522449         0.033964         2.103350
 H         4.235055         0.532271         2.014901
 H         5.092902         0.853605        -0.161675
 H         2.994695         2.347890        -0.197684
 H         3.313033         1.861727        -1.847060
 H         4.344371        -1.646427         0.251713
