19
Iteration:  1225charge 0 multiplicity 1
 C        -0.112107        -0.234237         0.008551
 C         1.395380         0.186885        -0.000697
 C         2.018526         0.592064         1.398647
 C         3.536131         0.368078         1.280135
 C         3.997868         0.688446        -0.162788
 C         3.208963         1.438924        -1.127992
 O         1.794130         0.931431        -1.191728
 C         3.562711        -0.676012         0.237737
 O         2.266980        -1.135677        -0.030725
 H        -0.573391        -1.190983         0.552376
 H        -0.824492         0.506618         0.289690
 H        -0.322628        -0.538196        -1.115379
 H         1.661220         1.646067         1.699941
 H         1.526863        -0.181548         2.035980
 H         4.106997         0.445906         2.228804
 H         5.144218         0.719179        -0.321902
 H         3.147787         2.453547        -0.871055
 H         3.597088         1.267676        -2.170154
 H         4.080350        -1.603487         0.174296
