19
Iteration:  2780charge 0 multiplicity 1
 C        -0.086846        -0.321878        -0.212677
 C         1.489344         0.075489         0.025136
 C         1.940294         0.581409         1.469610
 C         3.424904         0.464566         1.253564
 C         4.054799         0.618722        -0.111752
 C         3.158946         1.144446        -1.271314
 O         1.756429         1.238399        -0.803981
 C         3.606087        -0.759268         0.329453
 O         2.277926        -1.000576        -0.263796
 H        -0.342004        -1.232806         0.404977
 H        -0.662327         0.563369         0.099585
 H        -0.312439        -0.486473        -1.235284
 H         1.821522         1.634989         1.572869
 H         1.543351         0.013745         2.267482
 H         4.154054         0.660345         2.076234
 H         5.126284         0.782974        -0.212707
 H         3.453390         2.235781        -1.494131
 H         3.059095         0.564192        -2.185496
 H         4.365422        -1.547592         0.559987
