19
Iteration:  1974
 C         0.024774        -0.326624        -0.152915
 C         1.477120         0.062961         0.068718
 C         1.903166         0.646965         1.295202
 C         3.493374         0.484879         1.201029
 C         3.973666         0.606134        -0.234574
 C         3.191498         1.136706        -1.313284
 O         1.726293         1.364421        -0.687712
 C         3.581266        -0.817266         0.353842
 O         2.266175        -1.106436        -0.165775
 H        -0.184315        -0.872320         0.844868
 H        -0.689383         0.560278        -0.233388
 H        -0.312898        -0.958053        -0.880619
 H         1.691746         1.663447         1.481044
 H         1.732535        -0.000437         2.256705
 H         4.060992         0.708233         2.045964
 H         5.065950         0.801663        -0.400808
 H         3.398992         2.177957        -1.465689
 H         3.059448         0.550362        -2.395769
 H         4.364931        -1.646678         0.345579
