19
Iteration:  3607charge 0 multiplicity 1
 C        -0.028845        -0.285215        -0.155695
 C         1.449019         0.162911         0.032756
 C         1.904528         0.652170         1.400479
 C         3.476925         0.362886         1.294030
 C         4.044639         0.568248        -0.105850
 C         3.155215         1.297728        -1.151909
 O         1.773465         1.111453        -0.965051
 C         3.557956        -0.753587         0.283944
 O         2.309651        -1.041664        -0.228042
 H        -0.112259        -1.192457         0.529227
 H        -0.825354         0.382255         0.243243
 H        -0.262979        -0.439679        -1.240957
 H         1.632014         1.698450         1.692052
 H         1.364303         0.030889         2.213223
 H         3.893059         0.423449         2.253380
 H         5.113552         0.905760        -0.225064
 H         3.323554         2.357347        -1.275825
 H         3.513358         0.895535        -2.138474
 H         4.127843        -1.608685         0.412799
