19
Iteration:  3219charge 0 multiplicity 1
 C        -0.061853        -0.189968        -0.129494
 C         1.449769         0.014337        -0.007911
 C         1.989019         0.576375         1.458974
 C         3.471540         0.355542         1.331787
 C         4.024522         0.706457        -0.084430
 C         3.190592         1.459442        -1.134195
 O         1.697651         1.011756        -1.047078
 C         3.595095        -0.771476         0.244427
 O         2.273112        -1.106620        -0.202525
 H        -0.484101        -0.728536         0.766884
 H        -0.373895         0.910223        -0.087858
 H        -0.265665        -0.609185        -1.208969
 H         1.741315         1.710683         1.700037
 H         1.545540        -0.122550         2.219517
 H         4.121649         0.308629         2.202700
 H         4.991964         0.971809        -0.348427
 H         3.327754         2.528949        -1.078337
 H         3.485090         1.019067        -2.107224
 H         4.278214        -1.657215         0.332286
