19
Iteration:  1235
 C        -0.089419        -0.171953        -0.048467
 C         1.422324         0.149016        -0.014637
 C         2.029449         0.605302         1.351862
 C         3.525727         0.401591         1.319776
 C         4.045171         0.636850        -0.169468
 C         3.124961         1.496117        -1.118381
 O         1.755367         0.877000        -1.148946
 C         3.584207        -0.718512         0.285369
 O         2.217994        -1.167488        -0.079192
 H        -0.054894        -1.105170         0.619496
 H        -0.690116         0.619548         0.348074
 H        -0.424457        -0.392770        -1.111635
 H         1.791556         1.669878         1.578364
 H         1.614354        -0.027594         2.199135
 H         4.200312         0.393072         2.188531
 H         5.158297         0.805588        -0.195693
 H         3.011542         2.555449        -0.908647
 H         3.562609         1.428066        -2.121048
 H         4.351240        -1.460642         0.324413
