19
Iteration:  3974
 C         0.006762        -0.407867        -0.154763
 C         1.480974         0.193987         0.060604
 C         1.913996         0.600104         1.449807
 C         3.432446         0.362036         1.355764
 C         3.963476         0.649138        -0.117843
 C         3.227722         1.171741        -1.290980
 O         1.832786         1.238337        -0.871792
 C         3.506094        -0.718040         0.305235
 O         2.234059        -0.929638        -0.298038
 H         0.081556        -1.404037         0.393054
 H        -0.831643         0.045208         0.372568
 H        -0.137022        -0.821813        -1.128776
 H         1.651621         1.668460         1.560163
 H         1.453363        -0.108402         2.197720
 H         4.013612         0.294698         2.249588
 H         5.211007         0.677112        -0.193470
 H         3.558271         2.138471        -1.550369
 H         3.384258         0.667872        -2.247448
 H         3.973594        -1.661448         0.321329
