19
Iteration:  4856charge 0 multiplicity 1
 C         0.019515        -0.097422        -0.011895
 C         1.515961         0.037154        -0.032295
 C         1.970403         0.662724         1.369456
 C         3.426292         0.315249         1.267104
 C         3.944551         0.628606        -0.141868
 C         3.090887         1.528597        -0.966765
 O         1.772468         0.915567        -1.105176
 C         3.525191        -0.763884         0.221014
 O         2.320275        -1.176382        -0.210197
 H        -0.312231        -1.063760         0.483763
 H        -0.352201         0.849980         0.336087
 H        -0.189197        -0.187319        -1.036679
 H         1.733446         1.679545         1.355554
 H         1.658171         0.124104         2.342778
 H         4.054116         0.279940         2.135940
 H         5.095398         0.746791        -0.403102
 H         2.899952         2.497920        -0.394000
 H         3.500015         1.701237        -1.953056
 H         4.320844        -1.572709         0.262321
