19
Iteration:  1384
 C         0.090374        -0.369772        -0.001939
 C         1.525479         0.227788         0.089289
 C         1.916772         0.563443         1.455901
 C         3.420920         0.440147         1.253280
 C         3.997106         0.679386        -0.187591
 C         3.167263         1.251289        -1.316520
 O         1.792986         1.146580        -0.981715
 C         3.528961        -0.737036         0.318478
 O         2.187145        -1.049874        -0.185837
 H        -0.080942        -1.348267         0.563009
 H        -0.624711         0.453117         0.139400
 H         0.103413        -0.548028        -1.067018
 H         1.619822         1.507483         1.795422
 H         1.345396        -0.166298         2.109170
 H         4.058253         0.628051         2.158247
 H         5.108606         0.872628        -0.157712
 H         3.484654         2.195701        -1.666586
 H         3.234998         0.472940        -2.180822
 H         4.110370        -1.638776         0.208469
