19
Iteration:  2666
 C        -0.028426        -0.210961        -0.067439
 C         1.443184         0.144157        -0.059520
 C         2.065899         0.731300         1.295280
 C         3.519376         0.272023         1.275444
 C         4.039453         0.645241        -0.148330
 C         3.031295         1.554887        -0.922025
 O         1.798142         0.909688        -1.122114
 C         3.533310        -0.786378         0.208901
 O         2.260861        -1.191109        -0.085847
 H        -0.481174        -0.482412         0.927978
 H        -0.478039         0.729023        -0.426941
 H        -0.350193        -0.912333        -0.855784
 H         1.996462         1.841430         1.186774
 H         1.372036         0.330211         2.070297
 H         3.970811         0.133280         2.232809
 H         5.117025         0.748842        -0.293484
 H         2.852698         2.396941        -0.163346
 H         3.390919         1.759881        -1.962654
 H         4.227189        -1.629675         0.167989
