19
Iteration:   937charge 0 multiplicity 1
 C        -0.036574        -0.307660        -0.147933
 C         1.445840         0.172920         0.017384
 C         2.002782         0.744226         1.398008
 C         3.444287         0.426475         1.255290
 C         4.000850         0.619069        -0.160598
 C         3.099512         1.187274        -1.223634
 O         1.737310         1.182184        -0.875323
 C         3.612966        -0.772974         0.331074
 O         2.311331        -1.159823        -0.193072
 H        -0.142048        -1.035459         0.680639
 H        -0.623173         0.579872         0.280725
 H        -0.455253        -0.634792        -1.161244
 H         1.843776         1.735691         1.491109
 H         1.640511         0.250620         2.285766
 H         4.189296         0.603179         2.034962
 H         5.071338         0.897828        -0.140668
 H         3.175946         2.223264        -1.546341
 H         3.264856         0.460442        -2.144964
 H         4.227203        -1.639800         0.231454
