19
Iteration:  3475charge 0 multiplicity 1
 C         0.032091        -0.164778        -0.019387
 C         1.495927         0.021965        -0.008637
 C         2.007497         0.782127         1.246712
 C         3.406851         0.364041         1.263065
 C         4.056659         0.555984        -0.123647
 C         3.060933         1.526259        -0.888412
 O         1.786310         0.871602        -1.084500
 C         3.521616        -0.757500         0.242544
 O         2.256074        -1.153977        -0.248369
 H        -0.210002        -1.010547         0.575966
 H        -0.534285         0.758081         0.273998
 H        -0.322957        -0.435833        -1.092957
 H         1.738360         1.798473         1.142151
 H         1.495795         0.206977         2.059526
 H         3.953114         0.490013         2.223534
 H         5.253538         0.508083        -0.135172
 H         2.784223         2.644134        -0.339302
 H         3.734150         1.820897        -1.761107
 H         4.257882        -1.585774         0.371507
