19
Iteration:  1747charge 0 multiplicity 1
 C        -0.024916        -0.313765        -0.035254
 C         1.423182         0.141581         0.091377
 C         1.995510         0.729730         1.355974
 C         3.454151         0.462603         1.221996
 C         4.078206         0.589044        -0.132323
 C         3.122075         1.193844        -1.196987
 O         1.675811         1.141240        -0.969483
 C         3.654472        -0.773705         0.254456
 O         2.263007        -1.089818        -0.194519
 H        -0.166435        -1.323936         0.476108
 H        -0.845105         0.435304         0.304083
 H        -0.210917        -0.317701        -1.099939
 H         1.758518         1.767581         1.444041
 H         1.552862         0.232311         2.233657
 H         4.082000         0.417146         2.137635
 H         5.184700         0.738840        -0.110498
 H         3.248754         2.315595        -1.249793
 H         3.436108         0.778759        -2.147227
 H         4.310198        -1.587749         0.472709
