19
Iteration:  4345
 C         0.104576        -0.361770        -0.124802
 C         1.506013         0.139570         0.018915
 C         1.935049         0.725602         1.415072
 C         3.390339         0.318216         1.322970
 C         3.980640         0.674622        -0.052336
 C         3.102317         1.175656        -1.177338
 O         1.729586         1.211537        -0.870406
 C         3.629025        -0.818082         0.257211
 O         2.241544        -0.995602        -0.329961
 H        -0.014990        -1.340834         0.297188
 H        -0.596228         0.452204         0.291017
 H        -0.056513        -0.526189        -1.245674
 H         1.844398         1.780739         1.446284
 H         1.377057         0.256879         2.311084
 H         4.036435         0.467216         2.187628
 H         4.928789         0.911476        -0.173253
 H         3.285793         2.237269        -1.672951
 H         3.483039         0.447227        -1.906425
 H         4.202050        -1.749710         0.306117
