19
Iteration:  2103charge 0 multiplicity 1
 C        -0.007634        -0.320884        -0.056553
 C         1.485900         0.212269         0.034998
 C         2.085858         0.770144         1.382679
 C         3.565894         0.292783         1.310938
 C         3.869063         0.603024        -0.121077
 C         3.139403         1.460335        -1.135882
 O         1.785646         0.927716        -1.141814
 C         3.518748        -0.777228         0.202830
 O         2.172339        -1.108297        -0.028039
 H        -0.125792        -1.359420         0.415113
 H        -0.670507         0.430742         0.509863
 H        -0.265599        -0.386489        -1.078951
 H         2.069963         1.825319         1.351572
 H         1.488091         0.454179         2.197873
 H         4.384741         0.446427         2.015397
 H         4.910604         0.865026        -0.386035
 H         2.959775         2.538221        -1.093687
 H         3.504286         1.293953        -2.083318
 H         4.332453        -1.484769         0.006443
