19
Iteration:  4303charge 0 multiplicity 1
 C        -0.092876        -0.251917        -0.121488
 C         1.426568         0.066793         0.012816
 C         1.947541         0.552500         1.403757
 C         3.467155         0.410609         1.253076
 C         4.084792         0.654149        -0.168468
 C         3.201750         1.485036        -1.073758
 O         1.841289         1.019297        -1.095570
 C         3.551909        -0.752946         0.240413
 O         2.220627        -1.110780        -0.086699
 H        -0.289604        -1.086588         0.479547
 H        -0.710616         0.527019         0.345202
 H        -0.437454        -0.499983        -1.156584
 H         1.556307         1.502791         1.667380
 H         1.667860        -0.201220         2.174028
 H         4.078490         0.653482         2.137779
 H         5.037219         0.973550        -0.172540
 H         3.372611         2.515601        -0.768792
 H         3.350286         1.388372        -2.138847
 H         4.151978        -1.655880         0.337207
