19
Iteration:   423
 C         0.000596        -0.172217        -0.100792
 C         1.432359         0.105456         0.020161
 C         1.985577         0.721167         1.382207
 C         3.481676         0.364414         1.243538
 C         4.054038         0.635089        -0.144421
 C         3.062832         1.378669        -1.125631
 O         1.749869         0.889796        -1.065164
 C         3.554817        -0.758373         0.257026
 O         2.292133        -1.103493        -0.062970
 H        -0.119941        -0.908579         0.679980
 H        -0.606112         0.758167        -0.008098
 H        -0.111279        -0.594641        -1.118246
 H         1.764876         1.780417         1.475247
 H         1.454904         0.165815         2.135367
 H         4.055463         0.408119         2.152720
 H         5.070485         0.914324        -0.456533
 H         3.130556         2.417153        -0.832200
 H         3.399144         1.375664        -2.176759
 H         4.233145        -1.569881         0.363521
