19
Iteration:  3670
 C        -0.051940        -0.123823        -0.121606
 C         1.417464         0.083603         0.001591
 C         2.014327         0.634355         1.334962
 C         3.540022         0.337172         1.297140
 C         4.057204         0.699764        -0.119723
 C         3.062581         1.528598        -0.889340
 O         1.866017         0.843963        -1.254089
 C         3.548013        -0.761402         0.229748
 O         2.192993        -1.160529        -0.092530
 H        -0.327299        -0.699643         0.807483
 H        -0.596424         0.836440         0.054066
 H        -0.298507        -0.753484        -1.075045
 H         1.786495         1.669214         1.574066
 H         1.476593         0.005648         2.155390
 H         4.153370         0.283961         2.170808
 H         5.214373         0.930087        -0.396872
 H         2.712051         2.551159        -0.349257
 H         3.602451         1.727069        -1.845912
 H         4.090172        -1.649353         0.196978
