19
Iteration:  4147charge 0 multiplicity 1
 C         0.014055        -0.220387        -0.193421
 C         1.472461         0.117911         0.026161
 C         1.837615         0.468185         1.398044
 C         3.348900         0.430672         1.361442
 C         4.034814         0.660690        -0.134132
 C         3.137236         1.160611        -1.319397
 O         1.829150         1.205471        -0.851030
 C         3.583717        -0.701070         0.310974
 O         2.336682        -1.036789        -0.216160
 H        -0.100329        -1.060293         0.642055
 H        -0.585222         0.581837         0.326316
 H        -0.352380        -0.233301        -1.233503
 H         1.459676         1.488490         1.702890
 H         1.430243        -0.339736         2.107820
 H         4.101646         0.599575         2.130622
 H         5.211837         0.905472        -0.101763
 H         3.377252         2.115670        -1.691894
 H         3.191504         0.397247        -2.164092
 H         4.276561        -1.516949         0.511238
