19
Iteration:  1604
 C         0.045091        -0.259291        -0.173433
 C         1.421335         0.149599         0.120830
 C         2.003648         0.677570         1.492491
 C         3.453431         0.413239         1.290924
 C         3.981304         0.655233        -0.083720
 C         3.055821         1.128654        -1.296456
 O         1.747162         1.041623        -0.875258
 C         3.595833        -0.709269         0.244412
 O         2.323321        -1.015041        -0.234965
 H        -0.313159        -1.012476         0.503734
 H        -0.628262         0.641737        -0.131375
 H        -0.161756        -0.450363        -1.262455
 H         1.835285         1.691937         1.434761
 H         1.578402         0.252596         2.411077
 H         4.216295         0.361054         2.068747
 H         4.966089         0.956451        -0.345063
 H         3.158091         2.188107        -1.588951
 H         3.088082         0.492151        -2.182506
 H         4.263965        -1.585383         0.272445
