19
Iteration:   636
 C        -0.099714        -0.266113         0.120524
 C         1.402778         0.077264         0.017548
 C         1.977200         0.718426         1.258904
 C         3.493960         0.450215         1.299735
 C         4.039178         0.564034        -0.186584
 C         3.254319         1.440919        -1.041938
 O         1.702267         0.999096        -1.190555
 C         3.557096        -0.770379         0.288560
 O         2.312155        -1.156460        -0.172363
 H        -0.261924        -0.648191         1.113303
 H        -0.669851         0.747570         0.018789
 H        -0.376694        -1.030148        -0.703799
 H         1.611026         1.768483         1.114844
 H         1.536108         0.265857         2.076542
 H         4.047876         0.589658         2.233371
 H         5.191390         0.532322        -0.261910
 H         3.144032         2.477851        -0.687165
 H         3.558810         1.443034        -2.118828
 H         4.297619        -1.581007         0.479568
