19
Iteration:  2959charge 0 multiplicity 1
 C         0.079280        -0.280498        -0.060439
 C         1.455729         0.151175         0.019136
 C         1.894604         0.538584         1.438824
 C         3.381456         0.365635         1.277211
 C         4.059772         0.666055        -0.087103
 C         3.176546         1.122334        -1.231759
 O         1.757752         1.185731        -0.892211
 C         3.534005        -0.700521         0.269625
 O         2.265943        -0.907748        -0.261208
 H        -0.047491        -1.257053         0.345409
 H        -0.813954         0.377382         0.099142
 H        -0.114847        -0.581275        -1.177842
 H         1.581402         1.541860         1.950783
 H         1.593882        -0.359945         2.071710
 H         4.119789         0.507590         2.066522
 H         5.128356         0.781205        -0.141101
 H         3.343069         2.015331        -1.904144
 H         3.422307         0.367730        -2.077690
 H         4.236150        -1.548137         0.270508
