19
Iteration:  4958charge 0 multiplicity 1
 C        -0.079173        -0.275256        -0.070065
 C         1.471178         0.125146         0.019262
 C         1.908901         0.449736         1.428471
 C         3.407444         0.457143         1.235649
 C         4.036261         0.657045        -0.100943
 C         3.187083         1.213068        -1.207611
 O         1.789157         1.225795        -0.803590
 C         3.589075        -0.738853         0.235398
 O         2.303164        -1.044458        -0.325975
 H        -0.371232        -0.783466         0.823091
 H        -0.621402         0.700033        -0.053198
 H        -0.224243        -0.897319        -0.993239
 H         1.592569         1.546161         1.638314
 H         1.545529        -0.274854         2.191257
 H         4.005917         0.636713         2.141226
 H         5.160578         0.893467        -0.295125
 H         3.503856         2.245396        -1.436795
 H         3.316120         0.667248        -2.174369
 H         4.174034        -1.655627         0.300332
