19
Iteration:  4363
 C        -0.072407        -0.346784        -0.122820
 C         1.445621         0.180678         0.053010
 C         1.962079         0.533171         1.450734
 C         3.385977         0.319484         1.345143
 C         4.058206         0.676223        -0.095691
 C         3.176902         1.145972        -1.281385
 O         1.748441         1.244157        -0.913803
 C         3.530190        -0.651654         0.286172
 O         2.353156        -0.995073        -0.268788
 H        -0.036378        -1.254747         0.535578
 H        -0.739984         0.507950         0.078592
 H        -0.235761        -0.735431        -1.116346
 H         1.551670         1.569821         1.558577
 H         1.541721        -0.045293         2.277073
 H         4.075834         0.262815         2.126125
 H         5.200512         1.040540        -0.052077
 H         3.541607         2.097749        -1.624582
 H         3.355697         0.489612        -2.193071
 H         4.087108        -1.561974         0.261287
