19
Iteration:  3704charge 0 multiplicity 1
 C         0.046323        -0.174032        -0.138106
 C         1.463816         0.083711         0.024060
 C         1.912419         0.624816         1.349428
 C         3.415687         0.316783         1.274185
 C         4.052198         0.645934        -0.142256
 C         3.105142         1.433937        -1.037380
 O         1.767354         1.001607        -1.001788
 C         3.560274        -0.747375         0.273963
 O         2.300886        -1.148028        -0.190055
 H        -0.258991        -0.609369         0.898613
 H        -0.381082         0.869892        -0.188063
 H        -0.395252        -0.701717        -1.021643
 H         1.603676         1.677469         1.292287
 H         1.449991         0.126214         2.297322
 H         4.078033         0.310374         2.114123
 H         5.177981         0.882075        -0.356358
 H         3.300360         2.603763        -0.886860
 H         3.371849         1.299260        -2.118441
 H         4.099284        -1.701710         0.339620
