19
Iteration:  3147charge 0 multiplicity 1
 C        -0.034156        -0.389040        -0.211072
 C         1.465794         0.132801         0.042485
 C         1.918248         0.658105         1.409784
 C         3.441586         0.359056         1.268338
 C         4.060973         0.591154        -0.112359
 C         3.103231         1.233842        -1.179344
 O         1.756984         1.244773        -0.818100
 C         3.604563        -0.740855         0.258995
 O         2.275315        -1.035390        -0.262934
 H        -0.230205        -1.137569         0.561454
 H        -0.593867         0.471930         0.002254
 H        -0.162821        -0.622183        -1.186820
 H         1.752372         1.656626         1.548047
 H         1.507523        -0.023207         2.175766
 H         4.183852         0.666331         2.062657
 H         5.185862         0.756922        -0.056957
 H         3.314896         2.319380        -1.394294
 H         3.263002         0.626246        -2.040948
 H         4.343549        -1.569929         0.454684
