19
Iteration:  1378
 C         0.131966        -0.316787         0.007497
 C         1.470215         0.165756         0.071834
 C         1.955027         0.556030         1.504653
 C         3.385089         0.409495         1.215030
 C         4.006738         0.698892        -0.137600
 C         3.141049         1.188995        -1.354493
 O         1.790387         1.138499        -0.966506
 C         3.529758        -0.750388         0.306007
 O         2.222535        -1.014105        -0.195948
 H        -0.244837        -1.195318         0.464236
 H        -0.685204         0.416029         0.051148
 H         0.091406        -0.510024        -1.111334
 H         1.691726         1.673185         1.687442
 H         1.414338        -0.116086         2.223271
 H         3.887418         0.560095         2.144682
 H         5.018304         1.056297        -0.221470
 H         3.488516         2.272190        -1.602702
 H         3.232597         0.636715        -2.255475
 H         4.267214        -1.573662         0.416649
