19
Iteration:  3336
 C        -0.028577        -0.180697        -0.122024
 C         1.501295         0.095020        -0.016018
 C         1.917791         0.457037         1.470909
 C         3.447881         0.394581         1.293017
 C         3.993789         0.669087        -0.086486
 C         3.191017         1.257317        -1.226259
 O         1.710620         1.154594        -0.958974
 C         3.613230        -0.728423         0.289102
 O         2.305685        -1.061310        -0.221325
 H        -0.425412        -0.681402         0.700778
 H        -0.503302         0.808677        -0.118890
 H        -0.358644        -0.730065        -1.045075
 H         1.555895         1.476969         1.777224
 H         1.696435        -0.348774         2.147187
 H         3.987471         0.539375         2.228287
 H         5.135332         0.940149        -0.261462
 H         3.190366         2.406101        -1.324862
 H         3.401990         0.831295        -2.215855
 H         4.230038        -1.671226         0.319741
