19
Iteration:  4402
 C         0.027674        -0.128082        -0.151024
 C         1.502073         0.008239        -0.000077
 C         1.938362         0.502598         1.457760
 C         3.400009         0.438462         1.260621
 C         3.974418         0.623499        -0.190867
 C         3.148730         1.363035        -1.165542
 O         1.744063         1.092188        -0.894227
 C         3.572971        -0.719014         0.259512
 O         2.335981        -1.148557        -0.195532
 H        -0.531384        -0.624286         0.679749
 H        -0.451528         0.804840        -0.365374
 H        -0.185414        -0.699644        -1.067641
 H         1.611502         1.585450         1.594266
 H         1.536442        -0.119248         2.288514
 H         4.017448         0.489767         2.255546
 H         5.032733         1.030119        -0.254432
 H         3.152103         2.499642        -1.175628
 H         3.308066         1.039419        -2.195174
 H         4.268667        -1.546791         0.581291
