19
Iteration:  4589charge 0 multiplicity 1
 C         0.004984        -0.351666        -0.086829
 C         1.479211         0.176068        -0.005865
 C         2.006064         0.552108         1.396811
 C         3.496443         0.325127         1.356843
 C         4.000297         0.654218        -0.042853
 C         3.107390         1.229436        -1.153871
 O         1.709621         1.228979        -0.971977
 C         3.559728        -0.772850         0.274676
 O         2.250477        -0.967090        -0.286890
 H        -0.207792        -0.972252         0.842031
 H        -0.760398         0.415464        -0.327053
 H         0.036241        -0.900947        -1.013345
 H         1.809112         1.702067         1.597302
 H         1.419988         0.068206         2.138648
 H         3.993966        -0.020204         2.202746
 H         5.107837         1.090424        -0.250770
 H         3.412896         2.246290        -1.500502
 H         3.541651         0.681111        -2.008502
 H         4.238079        -1.610320         0.145056
