19
Iteration:   515charge 0 multiplicity 1
 C        -0.028691        -0.350636         0.051383
 C         1.452604         0.179952         0.024544
 C         1.900566         0.704332         1.347300
 C         3.404667         0.339908         1.368888
 C         4.125163         0.641423        -0.144103
 C         3.161751         1.158817        -1.266799
 O         1.709527         1.135138        -1.020482
 C         3.618224        -0.707013         0.318145
 O         2.284957        -1.025582        -0.263463
 H        -0.033582        -0.998406         0.991337
 H        -0.715022         0.489965         0.209950
 H        -0.314779        -0.762657        -0.949246
 H         1.697512         1.777788         1.551149
 H         1.502791         0.115107         2.081027
 H         4.017245         0.536870         2.279382
 H         5.217347         0.848083        -0.198737
 H         3.362624         2.222353        -1.433317
 H         3.357004         0.666651        -2.163410
 H         4.190940        -1.617045         0.326892
