19
Iteration:   108
 C         0.024356        -0.309780        -0.030399
 C         1.493418         0.143619         0.106688
 C         1.922711         0.586870         1.438442
 C         3.475293         0.448761         1.240724
 C         4.041694         0.645694        -0.247384
 C         3.205675         1.422637        -1.259446
 O         1.809205         1.014485        -1.065692
 C         3.473164        -0.681548         0.280002
 O         2.179335        -1.139238        -0.091194
 H        -0.323560        -0.913538         0.720624
 H        -0.630167         0.551204        -0.136007
 H         0.014179        -0.786596        -0.992901
 H         1.509069         1.665523         1.807143
 H         1.771303        -0.087516         2.252784
 H         3.921614         0.383319         2.228859
 H         5.125324         0.633541        -0.229274
 H         3.306703         2.478563        -1.120225
 H         3.533145         1.166542        -2.329241
 H         4.124668        -1.542410         0.510840
