19
Iteration:  1060charge 0 multiplicity 1
 C         0.037835        -0.302387         0.006901
 C         1.469932         0.184825        -0.039752
 C         2.002016         0.740891         1.381423
 C         3.504830         0.334763         1.244737
 C         4.006635         0.629313        -0.228220
 C         3.122156         1.498894        -1.084364
 O         1.838164         0.956942        -1.220106
 C         3.478695        -0.756192         0.256786
 O         2.159040        -1.151650         0.000458
 H         0.086592        -1.159626         0.739723
 H        -0.671291         0.455514         0.496390
 H        -0.274731        -0.723954        -0.937639
 H         1.798214         1.773511         1.449728
 H         1.518337         0.222370         2.148874
 H         4.012821         0.048817         2.180468
 H         5.077302         0.780686        -0.209460
 H         3.162173         2.481008        -0.616630
 H         3.541827         1.560245        -2.150510
 H         4.132854        -1.659561         0.502069
