19
Iteration:  3044charge 0 multiplicity 1
 C        -0.063971        -0.338897        -0.047643
 C         1.491280         0.147978         0.013198
 C         2.008129         0.689569         1.317797
 C         3.509893         0.249639         1.320389
 C         4.096432         0.630368        -0.134350
 C         3.119970         1.532168        -1.009551
 O         1.804697         0.951116        -1.189482
 C         3.493147        -0.770059         0.230768
 O         2.162878        -1.045452        -0.097199
 H        -0.072759        -1.110156         0.722316
 H        -0.804230         0.498472        -0.082916
 H         0.099060        -0.965358        -1.022706
 H         1.922579         1.810767         1.574096
 H         1.535315         0.258407         2.172388
 H         4.058597         0.396345         2.241977
 H         5.144558         0.857217        -0.371254
 H         2.983793         2.590521        -0.556214
 H         3.601468         1.835438        -1.984966
 H         3.995408        -1.729706         0.149988
