19
Iteration:  1477
 C        -0.037218        -0.246175         0.029752
 C         1.410062         0.149614         0.000008
 C         2.013510         0.643560         1.312536
 C         3.480928         0.492648         1.198792
 C         4.074767         0.614392        -0.229489
 C         3.122042         1.544970        -1.007902
 O         1.900748         0.823801        -1.148491
 C         3.505790        -0.761964         0.259874
 O         2.188571        -1.163617        -0.080340
 H        -0.276836        -0.785435         0.902098
 H        -0.747739         0.632617         0.041959
 H        -0.453655        -0.879960        -0.705262
 H         1.760033         1.735351         1.691473
 H         1.545991         0.058930         2.106536
 H         4.048427         0.639060         2.123295
 H         5.136787         0.648781        -0.431232
 H         2.692423         2.454126        -0.500353
 H         3.555972         1.833991        -1.927887
 H         4.282749        -1.529393         0.137617
