19
Iteration:  1932charge 0 multiplicity 1
 C        -0.061229        -0.205628        -0.061620
 C         1.428353         0.126926         0.043547
 C         2.075462         0.638731         1.455227
 C         3.538992         0.400905         1.261885
 C         4.016866         0.640832        -0.117360
 C         3.135103         1.230838        -1.192061
 O         1.713060         0.954363        -1.025440
 C         3.613003        -0.663767         0.290784
 O         2.210279        -1.029004        -0.186525
 H        -0.248881        -1.187951         0.494990
 H        -0.587211         0.733200         0.130617
 H        -0.142633        -0.227102        -1.126910
 H         1.630383         1.616318         1.647154
 H         1.518391        -0.111056         2.163606
 H         4.263332         0.511051         2.007372
 H         5.071880         0.922476        -0.137030
 H         3.197943         2.338321        -1.257162
 H         3.316363         0.853376        -2.237571
 H         4.054043        -1.653815         0.093278
