19
Iteration:  4551
 C        -0.029396        -0.307159        -0.136118
 C         1.444154         0.047786         0.025978
 C         1.920710         0.565871         1.394053
 C         3.419160         0.475609         1.232304
 C         4.035071         0.605983        -0.143237
 C         3.163949         1.249807        -1.205917
 O         1.804928         1.270814        -0.778897
 C         3.574653        -0.766067         0.287882
 O         2.315637        -1.050817        -0.269931
 H        -0.298642        -1.127691         0.540049
 H        -0.774767         0.508606        -0.108296
 H        -0.136575        -0.854423        -1.150662
 H         1.489274         1.518661         1.485065
 H         1.599316        -0.104541         2.302634
 H         4.084885         0.578082         2.171741
 H         5.011281         0.811813        -0.326028
 H         3.437151         2.308572        -1.244002
 H         3.150655         0.805723        -2.216708
 H         3.981082        -1.787713         0.421579
