19
Iteration:  2953charge 0 multiplicity 1
 C         0.055723        -0.318118        -0.105089
 C         1.475167         0.140806         0.026323
 C         1.941191         0.564816         1.454973
 C         3.375260         0.358255         1.295558
 C         4.024766         0.669889        -0.137469
 C         3.166007         1.128493        -1.233099
 O         1.775339         1.223799        -0.900064
 C         3.535013        -0.722983         0.269927
 O         2.286105        -0.929769        -0.250922
 H         0.040274        -1.300952         0.452870
 H        -0.640279         0.416029         0.295500
 H        -0.191141        -0.544101        -1.082168
 H         1.514540         1.458128         1.735797
 H         1.409274        -0.178413         2.056764
 H         4.008421         0.524618         2.157091
 H         5.106886         0.848295        -0.110230
 H         3.377390         2.092169        -1.690403
 H         3.346736         0.485001        -2.083219
 H         3.975860        -1.715001         0.380560
