19
Iteration:   894charge 0 multiplicity 1
 C        -0.019226        -0.186014        -0.028767
 C         1.475678         0.134401         0.013151
 C         1.964097         0.671012         1.447647
 C         3.470317         0.509523         1.217470
 C         3.976074         0.567549        -0.142118
 C         3.157864         1.334643        -1.250052
 O         1.762748         0.992593        -0.999464
 C         3.551527        -0.760354         0.298955
 O         2.272613        -1.155915        -0.166258
 H        -0.088959        -1.087588         0.597179
 H        -0.584357         0.721566         0.298844
 H        -0.252220        -0.478553        -1.097277
 H         1.641671         1.635751         1.657044
 H         1.641185        -0.052225         2.186800
 H         4.106630         0.544416         2.098151
 H         5.049669         0.764988        -0.197165
 H         3.270286         2.428195        -1.096855
 H         3.217483         1.020365        -2.290820
 H         4.322406        -1.508939         0.367391
