19
Iteration:  3994charge 0 multiplicity 1
 C         0.079583        -0.336616        -0.127837
 C         1.434623         0.176889         0.041609
 C         1.886960         0.661020         1.443324
 C         3.405707         0.388099         1.233698
 C         4.058293         0.548937        -0.107981
 C         3.185386         1.264457        -1.133321
 O         1.723494         1.188054        -0.917392
 C         3.562130        -0.777087         0.289403
 O         2.253294        -1.046871        -0.301345
 H        -0.132766        -1.226649         0.462493
 H        -0.560543         0.517247         0.157543
 H         0.000066        -0.660325        -1.217822
 H         1.519649         1.729678         1.586442
 H         1.723841        -0.005980         2.295410
 H         4.112334         0.542849         2.022555
 H         5.151842         0.833885         0.013151
 H         3.374073         2.362665        -1.277084
 H         3.507008         0.850599        -2.099470
 H         4.124902        -1.677736         0.437230
