19
Iteration:  1147
 C         0.029573        -0.301300        -0.070551
 C         1.423636         0.183449         0.094559
 C         1.973722         0.672932         1.436422
 C         3.479834         0.366479         1.244609
 C         3.987904         0.688017        -0.131662
 C         3.169153         1.262294        -1.260346
 O         1.801109         1.066350        -0.956573
 C         3.531371        -0.683336         0.273558
 O         2.235924        -1.067540        -0.202205
 H        -0.347582        -0.934204         0.829260
 H        -0.781505         0.482853        -0.237259
 H        -0.027608        -0.887761        -1.004927
 H         1.612089         1.588544         1.832421
 H         1.611575        -0.122964         2.160440
 H         4.084593         0.290092         2.145074
 H         5.063926         0.629774        -0.248501
 H         3.243458         2.286477        -1.589223
 H         3.408268         0.612969        -2.170929
 H         4.205279        -1.551587         0.335614
