19
Iteration:  3365
 C         0.035299        -0.343044        -0.134445
 C         1.483961         0.173598         0.033302
 C         1.913480         0.587616         1.511417
 C         3.413617         0.312991         1.265579
 C         4.003110         0.723851        -0.058746
 C         3.203170         1.171625        -1.258583
 O         1.759386         1.206030        -0.848912
 C         3.525443        -0.753024         0.230645
 O         2.292478        -0.958835        -0.304519
 H        -0.409250        -0.865850         0.759272
 H        -0.625305         0.527468        -0.350604
 H         0.045371        -1.039950        -0.977018
 H         1.665104         1.591246         1.664901
 H         1.547128        -0.101133         2.314024
 H         3.968361         0.274885         2.172903
 H         5.129415         0.918313        -0.155441
 H         3.245942         2.125004        -1.580422
 H         3.412235         0.472772        -2.122098
 H         4.062002        -1.698605         0.210824
