19
Iteration:  3919
 C        -0.049261        -0.151121        -0.169407
 C         1.532397         0.034253         0.085300
 C         1.919301         0.529139         1.498834
 C         3.416944         0.401836         1.309496
 C         4.039982         0.673826        -0.141444
 C         3.141648         1.376832        -1.225286
 O         1.754766         1.022668        -0.987592
 C         3.589646        -0.695029         0.311763
 O         2.295062        -1.110838        -0.244405
 H        -0.568055        -0.894341         0.441240
 H        -0.413506         0.882189        -0.032077
 H        -0.281127        -0.317776        -1.264352
 H         1.585503         1.605458         1.693109
 H         1.534432        -0.127194         2.309483
 H         4.016651         0.455452         2.200218
 H         5.283620         0.734974        -0.109059
 H         3.261605         2.431992        -1.125618
 H         3.452408         0.927965        -2.241534
 H         4.051925        -1.699835         0.357711
