19
Iteration:  3319charge 0 multiplicity 1
 C        -0.038384        -0.135036        -0.120361
 C         1.431300         0.050519        -0.010691
 C         1.987299         0.567879         1.323236
 C         3.450059         0.400193         1.235529
 C         4.030700         0.665873        -0.157942
 C         3.120466         1.396229        -1.087347
 O         1.743333         1.072716        -0.926129
 C         3.617105        -0.740943         0.330066
 O         2.296577        -1.193471        -0.210177
 H        -0.427337        -0.899792         0.682345
 H        -0.430402         0.859681         0.134636
 H        -0.173906        -0.505695        -1.125102
 H         1.432745         1.558557         1.392672
 H         1.553639        -0.162731         2.066354
 H         4.061008         0.454453         2.178143
 H         5.020153         0.855944        -0.136385
 H         3.228385         2.486130        -1.038860
 H         3.459814         1.039339        -2.087435
 H         4.262791        -1.586576         0.511863
