19
Iteration:  4601charge 0 multiplicity 1
 C         0.001577        -0.284763        -0.133398
 C         1.428264         0.140097        -0.015352
 C         1.999512         0.576032         1.417835
 C         3.498961         0.249032         1.329345
 C         3.971093         0.675838        -0.034870
 C         3.161476         1.306670        -1.135541
 O         1.713180         1.150840        -1.029894
 C         3.603516        -0.711832         0.248341
 O         2.246069        -1.023016        -0.248208
 H        -0.281698        -0.837757         0.774036
 H        -0.601059         0.647470        -0.003633
 H        -0.319516        -0.994094        -0.881920
 H         1.703410         1.651957         1.733141
 H         1.682946        -0.171874         2.089073
 H         4.206753         0.470599         2.098478
 H         5.177480         0.857622        -0.053762
 H         3.375392         2.394734        -1.122182
 H         3.266099         0.731575        -2.050511
 H         4.272705        -1.574312         0.293577
