19
Iteration:  2823charge 0 multiplicity 1
 C        -0.025247        -0.301325        -0.087853
 C         1.397184         0.118214        -0.016163
 C         2.006556         0.663967         1.374447
 C         3.502761         0.312321         1.295273
 C         4.026974         0.621612        -0.116020
 C         3.169053         1.385304        -1.088934
 O         1.739643         1.081386        -1.051617
 C         3.552957        -0.761545         0.289350
 O         2.238014        -1.086160        -0.193259
 H        -0.221453        -0.665275         0.950492
 H        -0.553842         0.630230        -0.310073
 H        -0.222655        -0.980553        -0.880617
 H         1.842536         1.692138         1.415624
 H         1.606305         0.134630         2.178169
 H         4.096057         0.457512         2.222323
 H         5.089432         0.863442        -0.179539
 H         3.185011         2.550381        -0.898994
 H         3.595980         1.265288        -2.100612
 H         4.180040        -1.709421         0.265056
