19
Iteration:  3199
 C        -0.010587        -0.211137        -0.133071
 C         1.486892         0.170877         0.040752
 C         1.938775         0.472891         1.435587
 C         3.440315         0.323446         1.328541
 C         3.986752         0.688647        -0.065261
 C         3.132836         1.262762        -1.229582
 O         1.765942         1.145749        -1.000682
 C         3.563085        -0.726253         0.230564
 O         2.272542        -1.048421        -0.184434
 H        -0.269836        -0.837066         0.820031
 H        -0.763198         0.620715        -0.195939
 H         0.063190        -0.902124        -1.042566
 H         1.604695         1.499799         1.700059
 H         1.645199        -0.276422         2.194641
 H         4.201182         0.506360         2.125230
 H         4.982257         0.942156        -0.055405
 H         3.294783         2.420438        -1.262958
 H         3.530628         0.750967        -2.169281
 H         4.441282        -1.424219         0.106686
