19
Iteration:  3502
 C        -0.024036        -0.341367        -0.124567
 C         1.428561         0.133503         0.042891
 C         1.938318         0.687643         1.363269
 C         3.493506         0.282704         1.225445
 C         4.019698         0.614443        -0.077356
 C         3.180012         1.488179        -1.086201
 O         1.792763         1.083902        -1.105974
 C         3.584074        -0.808041         0.239087
 O         2.193878        -1.064643        -0.100043
 H        -0.194864        -1.066372         0.731083
 H        -0.749753         0.439041        -0.050420
 H        -0.146363        -0.924607        -0.981299
 H         1.814240         1.813410         1.402664
 H         1.429095         0.096034         2.100173
 H         4.166130         0.315642         2.070780
 H         5.039338         0.700528        -0.080304
 H         3.161049         2.517788        -0.754765
 H         3.803944         1.417377        -1.939379
 H         4.252397        -1.672624         0.351179
