19
Iteration:  4995
 C         0.015838        -0.188199        -0.248079
 C         1.397563         0.175654         0.075536
 C         1.995066         0.453372         1.457430
 C         3.549452         0.346451         1.338950
 C         3.975444         0.650912        -0.096349
 C         3.067087         1.232081        -1.188271
 O         1.695730         1.175749        -0.879341
 C         3.622775        -0.719258         0.219609
 O         2.310900        -1.057127        -0.241266
 H        -0.405638        -0.953597         0.472756
 H        -0.548970         0.722138        -0.155003
 H        -0.234626        -0.522692        -1.301213
 H         1.755106         1.563257         1.715004
 H         1.548477        -0.120182         2.263964
 H         4.189794         0.591019         2.184241
 H         4.976763         0.726058        -0.210375
 H         3.289290         2.333002        -1.518676
 H         3.283999         0.488395        -2.034082
 H         4.366863        -1.504687         0.360280
