19
Iteration:  3785
 C        -0.055669        -0.153475        -0.233435
 C         1.449101         0.013789         0.018340
 C         1.953642         0.546092         1.428144
 C         3.458198         0.437592         1.313829
 C         4.049764         0.676566        -0.101691
 C         3.102200         1.186589        -1.219002
 O         1.739909         1.166244        -0.871043
 C         3.654677        -0.698042         0.355132
 O         2.299944        -1.075474        -0.267905
 H        -0.445617        -1.122984         0.222516
 H        -0.622346         0.655823         0.261203
 H        -0.398602        -0.305484        -1.294085
 H         1.564617         1.645292         1.681485
 H         1.641496        -0.216184         2.162284
 H         4.151606         0.374916         2.184880
 H         5.066429         0.955535        -0.197219
 H         3.514889         2.164651        -1.343876
 H         3.232308         0.560890        -2.151618
 H         4.123730        -1.639937         0.512760
