19
Iteration:  2798charge 0 multiplicity 1
 C         0.078988        -0.329784        -0.121344
 C         1.420395         0.178010         0.076073
 C         1.927830         0.634670         1.464084
 C         3.436044         0.349754         1.292302
 C         3.974190         0.611223        -0.164365
 C         3.186811         1.263940        -1.233853
 O         1.807691         1.185767        -0.925517
 C         3.505029        -0.740321         0.252974
 O         2.243837        -1.041491        -0.190532
 H         0.051283        -1.048311         0.623798
 H        -0.754341         0.376005        -0.201513
 H         0.152423        -0.839724        -1.149503
 H         1.501524         1.608439         1.645684
 H         1.559954        -0.166306         2.155352
 H         4.082246         0.437758         2.184759
 H         5.025655         0.892195        -0.181267
 H         3.451045         2.337661        -1.524038
 H         3.441824         0.765252        -2.199162
 H         4.116115        -1.643825         0.266479
