19
Iteration:   225charge 0 multiplicity 1
 C         0.007280        -0.234870        -0.145451
 C         1.432275         0.054684         0.072283
 C         2.035706         0.671564         1.366997
 C         3.506383         0.489366         1.232515
 C         3.932369         0.574260        -0.103826
 C         3.110240         1.314971        -1.142048
 O         1.703274         1.019270        -1.014394
 C         3.614116        -0.779791         0.269549
 O         2.261502        -1.085069        -0.115515
 H        -0.303167        -1.136448         0.474940
 H        -0.507660         0.812687         0.138889
 H        -0.001302        -0.327743        -1.324645
 H         1.689029         1.683186         1.362465
 H         1.533338         0.244616         2.292580
 H         4.220477         0.742417         2.036067
 H         4.988996         0.764109        -0.221300
 H         3.292717         2.438033        -0.895279
 H         3.474062         1.034342        -2.106697
 H         4.318466        -1.663471         0.272473
