19
Iteration:  1646charge 0 multiplicity 1
 C         0.013085        -0.267674         0.026208
 C         1.490760         0.094967        -0.068733
 C         2.008845         0.704240         1.252647
 C         3.458180         0.415484         1.209302
 C         4.009569         0.564576        -0.242504
 C         3.150888         1.420256        -1.076144
 O         1.749392         1.040227        -1.019176
 C         3.529184        -0.760225         0.302447
 O         2.242110        -1.105289        -0.069703
 H        -0.014265        -0.863138         0.943276
 H        -0.796895         0.502381        -0.058896
 H        -0.283676        -1.073521        -0.798581
 H         1.616330         1.655358         1.432187
 H         1.710011        -0.009009         2.076624
 H         3.789028         0.581908         2.218276
 H         5.066491         0.619647        -0.254628
 H         3.250923         2.504331        -0.733891
 H         3.481911         1.328374        -2.082780
 H         4.197032        -1.636752         0.385858
