19
Iteration:  4586
 C         0.007201        -0.353258        -0.088560
 C         1.478484         0.176409         0.008309
 C         1.995074         0.578177         1.402522
 C         3.458522         0.330997         1.363980
 C         4.033748         0.666516        -0.054427
 C         3.117396         1.228324        -1.178418
 O         1.704950         1.236298        -0.941278
 C         3.544780        -0.788013         0.255161
 O         2.272485        -0.970458        -0.304072
 H        -0.212241        -1.020165         0.859170
 H        -0.754398         0.398381        -0.290933
 H         0.218421        -0.934278        -0.996283
 H         1.829749         1.676838         1.523653
 H         1.368222         0.041813         2.215351
 H         4.021474         0.014809         2.269180
 H         5.012148         0.965448        -0.252394
 H         3.395248         2.252913        -1.497110
 H         3.512507         0.609874        -2.020997
 H         4.150582        -1.686807         0.163012
