19
Iteration:  2506
 C        -0.067387        -0.092221        -0.050932
 C         1.441429         0.061456         0.004615
 C         1.992081         0.643527         1.415972
 C         3.488805         0.380063         1.320328
 C         3.986016         0.710427        -0.110219
 C         3.133108         1.369062        -1.120831
 O         1.768866         0.860359        -1.077761
 C         3.615807        -0.689044         0.226806
 O         2.270736        -1.155541        -0.198458
 H        -0.496286        -1.091755         0.171126
 H        -0.555460         0.710838         0.493127
 H        -0.187440         0.048578        -1.160553
 H         1.794619         1.715103         1.543291
 H         1.447151         0.098350         2.230289
 H         4.151327         0.352954         2.148834
 H         5.094043         0.822107        -0.117602
 H         3.112278         2.460539        -0.876281
 H         3.432419         1.144989        -2.082389
 H         4.302619        -1.521333         0.384817
