19
Iteration:  1931
 C        -0.067722        -0.208781        -0.054113
 C         1.434330         0.120847         0.040892
 C         2.078827         0.640111         1.445433
 C         3.541107         0.400948         1.272643
 C         4.013144         0.645559        -0.117096
 C         3.130094         1.239367        -1.182009
 O         1.720651         0.957716        -1.040434
 C         3.611331        -0.670292         0.291150
 O         2.209212        -1.032876        -0.187739
 H        -0.276286        -1.177223         0.487918
 H        -0.601333         0.747425         0.156079
 H        -0.180203        -0.228205        -1.087549
 H         1.658229         1.612872         1.616341
 H         1.523790        -0.102232         2.168832
 H         4.268543         0.526439         2.005664
 H         5.087253         0.920817        -0.105631
 H         3.189286         2.331202        -1.241249
 H         3.295053         0.846585        -2.256862
 H         4.070565        -1.661750         0.095495
