19
Iteration:  4804
 C         0.079809        -0.349558        -0.084435
 C         1.476640         0.115339         0.068777
 C         1.915281         0.576064         1.415799
 C         3.440726         0.402783         1.293318
 C         4.026562         0.561916        -0.176164
 C         3.156775         1.377623        -1.197709
 O         1.779543         1.187780        -0.890949
 C         3.535019        -0.792354         0.273125
 O         2.211591        -1.036766        -0.308670
 H        -0.210149        -1.188119         0.674342
 H        -0.535081         0.561531        -0.099315
 H         0.004853        -0.680778        -1.056480
 H         1.625582         1.619576         1.577108
 H         1.502136         0.080121         2.334099
 H         4.073909         0.562644         2.149941
 H         5.201020         0.775689        -0.218104
 H         3.308738         2.484326        -1.040488
 H         3.348184         1.003712        -2.239826
 H         4.057417        -1.704722         0.546009
