19
Iteration:  3004
 C         0.057515        -0.181546        -0.162793
 C         1.462594         0.070976         0.097237
 C         1.924394         0.572464         1.362737
 C         3.424542         0.416330         1.260328
 C         4.008710         0.640809        -0.177940
 C         3.101778         1.305649        -1.188646
 O         1.717665         1.121140        -0.852097
 C         3.639936        -0.788154         0.300693
 O         2.314589        -1.125299        -0.212387
 H        -0.430817        -0.628102         0.679969
 H        -0.332386         0.881151        -0.281157
 H        -0.203105        -0.727222        -1.076344
 H         1.504551         1.579621         1.328072
 H         1.398157         0.029735         2.195463
 H         3.912728         0.466188         2.210925
 H         5.062504         0.792683        -0.203963
 H         3.341705         2.399091        -1.206081
 H         3.268758         1.085655        -2.238233
 H         4.336983        -1.626122         0.278272
