19
Iteration:   441charge 0 multiplicity 1
 C        -0.023459        -0.245410        -0.113804
 C         1.473604         0.043677         0.082250
 C         2.006815         0.602169         1.424867
 C         3.504129         0.563076         1.175584
 C         3.984995         0.575981        -0.254276
 C         3.177289         1.467563        -1.165974
 O         1.788321         1.000337        -1.054809
 C         3.532605        -0.742163         0.389943
 O         2.177524        -1.195129        -0.085092
 H        -0.469928        -0.818031         0.693785
 H        -0.557912         0.682026        -0.260722
 H        -0.127765        -0.557479        -1.164451
 H         1.625183         1.567040         1.751476
 H         1.772834        -0.302768         2.221652
 H         4.161786         0.825148         2.015510
 H         5.097053         0.753354        -0.283885
 H         3.259910         2.593442        -0.913126
 H         3.538713         1.389596        -2.318265
 H         4.178280        -1.574912         0.582321
