19
Iteration:  4991charge 0 multiplicity 1
 C         0.052308        -0.201945        -0.232645
 C         1.425233         0.170816         0.075474
 C         1.969480         0.425406         1.492794
 C         3.520370         0.342648         1.341515
 C         3.979067         0.678593        -0.101890
 C         3.061473         1.225935        -1.251232
 O         1.703783         1.178180        -0.872953
 C         3.601961        -0.712506         0.222178
 O         2.309538        -1.057800        -0.243808
 H        -0.387678        -0.737218         0.530187
 H        -0.553781         0.735497        -0.180324
 H        -0.208899        -0.441012        -1.320145
 H         1.753600         1.559355         1.750267
 H         1.463670        -0.103690         2.309568
 H         4.165204         0.492068         2.205064
 H         5.101914         0.837770        -0.285640
 H         3.322535         2.251069        -1.490053
 H         3.282716         0.493229        -1.989840
 H         4.334450        -1.529319         0.337266
