19
Iteration:  3233
 C         0.003083        -0.137639        -0.100731
 C         1.478101         0.058535         0.038389
 C         1.934570         0.647362         1.344072
 C         3.458672         0.370716         1.228199
 C         4.074490         0.637351        -0.115806
 C         3.098981         1.444592        -1.030625
 O         1.777305         0.946213        -0.988935
 C         3.549796        -0.749214         0.259121
 O         2.281251        -1.160090        -0.243226
 H        -0.372150        -0.923007         0.658825
 H        -0.557990         0.796773         0.001978
 H        -0.310417        -0.530360        -1.059823
 H         1.565305         1.636451         1.333605
 H         1.535896         0.168610         2.277099
 H         4.089584         0.449505         2.169543
 H         5.138465         0.745352        -0.044181
 H         2.940572         2.548565        -0.698972
 H         3.408513         1.508880        -2.105854
 H         4.263293        -1.621521         0.255238
