19
Iteration:   754
 C         0.020187        -0.247722         0.029996
 C         1.424122         0.175745         0.057527
 C         2.010345         0.698636         1.334263
 C         3.471642         0.364917         1.259276
 C         4.015557         0.722158        -0.009594
 C         3.152559         1.169355        -1.220551
 O         1.694359         1.071997        -1.104662
 C         3.579808        -0.738190         0.235370
 O         2.232929        -1.069626        -0.165728
 H        -0.176358        -1.115538         0.557557
 H        -0.695603         0.468453         0.322149
 H        -0.197807        -0.566681        -1.001005
 H         1.777252         1.875033         1.587715
 H         1.841731        -0.010754         2.208778
 H         4.049343         0.342025         2.170020
 H         5.112150         0.998043        -0.098827
 H         3.524731         2.141235        -1.487731
 H         3.373609         0.363226        -1.971379
 H         4.263766        -1.637412         0.348320
