19
Iteration:   394
 C        -0.033037        -0.250270         0.081057
 C         1.443633         0.059591        -0.013483
 C         2.043292         0.800312         1.264489
 C         3.473059         0.316839         1.326407
 C         4.054328         0.687420        -0.012253
 C         3.134351         1.475588        -1.127540
 O         1.750247         0.922728        -1.151063
 C         3.490221        -0.795021         0.299458
 O         2.261847        -1.164079        -0.231974
 H        -0.005138        -1.121158         0.841219
 H        -0.759113         0.539380         0.371483
 H        -0.354450        -0.583334        -0.916069
 H         2.060540         1.936224         0.949963
 H         1.422661         0.680871         2.128555
 H         4.059739         0.417718         2.265068
 H         5.118715         0.861585        -0.120940
 H         3.073325         2.621677        -0.943993
 H         3.509379         1.298651        -2.102711
 H         4.215753        -1.707456         0.380023
