19
Iteration:  2471charge 0 multiplicity 1
 C         0.043043        -0.315123         0.040112
 C         1.514837         0.180143        -0.042657
 C         1.971181         0.751943         1.248178
 C         3.431716         0.361165         1.199503
 C         3.964482         0.551112        -0.170170
 C         3.169691         1.522366        -0.954493
 O         1.845874         0.952878        -1.150640
 C         3.520577        -0.812715         0.260105
 O         2.157181        -1.144900        -0.105496
 H        -0.054620        -0.993158         1.026083
 H        -0.759029         0.472595         0.036366
 H        -0.163075        -0.854531        -0.871913
 H         1.849389         1.830223         1.346771
 H         1.495567         0.271415         2.134246
 H         4.197256         0.580484         1.914166
 H         5.009994         0.752861        -0.203569
 H         3.075409         2.511330        -0.338439
 H         3.531678         1.909089        -1.866361
 H         4.186986        -1.656991         0.491633
