19
Iteration:  2458
 C         0.021800        -0.335525        -0.043339
 C         1.414795         0.085483         0.032057
 C         2.016010         0.890959         1.308007
 C         3.450198         0.381624         1.248675
 C         4.084902         0.541996        -0.228503
 C         3.141262         1.491808        -0.940445
 O         1.825928         0.959798        -1.068896
 C         3.450292        -0.785226         0.233709
 O         2.214571        -1.154454        -0.194384
 H        -0.149535        -0.810133         1.012324
 H        -0.708418         0.530537        -0.178751
 H        -0.076533        -1.220832        -0.666021
 H         1.783693         1.948439         1.066940
 H         1.471931         0.594285         2.209023
 H         3.976966         0.335379         2.275086
 H         5.182243         0.555117        -0.309007
 H         3.095305         2.439319        -0.232714
 H         3.495460         1.741919        -2.017563
 H         4.136240        -1.632974         0.270548
