19
Iteration:  3687charge 0 multiplicity 1
 C        -0.046844        -0.085564        -0.069730
 C         1.505667         0.022814        -0.021958
 C         1.987765         0.630233         1.361047
 C         3.469230         0.347130         1.270228
 C         3.953441         0.655137        -0.100209
 C         3.122328         1.548850        -1.009508
 O         1.829218         0.882751        -1.103765
 C         3.574663        -0.764257         0.219308
 O         2.228996        -1.197377        -0.151494
 H        -0.585644        -0.658074         0.671018
 H        -0.437862         0.886730        -0.305834
 H        -0.278047        -0.652978        -0.939334
 H         1.783889         1.745463         1.408822
 H         1.557713         0.087190         2.156013
 H         4.073959         0.490021         2.202634
 H         4.962613         0.774820        -0.084643
 H         2.991812         2.462947        -0.530678
 H         3.534170         1.678535        -2.008854
 H         4.478561        -1.420937         0.268494
