19
Iteration:  1717
 C        -0.017303        -0.204934        -0.032012
 C         1.488960         0.026557         0.085486
 C         2.013792         0.621863         1.344232
 C         3.433628         0.477175         1.205858
 C         3.972233         0.592467        -0.270787
 C         3.102443         1.520580        -1.136729
 O         1.825933         0.931466        -1.108246
 C         3.541217        -0.744851         0.316943
 O         2.212065        -1.162749        -0.037184
 H        -0.339408        -1.098596         0.576888
 H        -0.453862         0.731717         0.213165
 H        -0.185440        -0.252206        -1.082313
 H         1.829152         1.699406         1.586447
 H         1.686662         0.034719         2.163981
 H         4.147598         0.617861         1.947313
 H         5.063456         0.505809        -0.275815
 H         3.161898         2.488554        -0.611877
 H         3.539894         1.604547        -2.189372
 H         4.324833        -1.480682         0.388682
