19
Iteration:  2741
 C        -0.010451        -0.137844        -0.170844
 C         1.475640         0.024705         0.050473
 C         1.966365         0.553018         1.474519
 C         3.405794         0.385725         1.323974
 C         3.917154         0.672511        -0.130475
 C         3.160971         1.206095        -1.335977
 O         1.779050         1.142256        -0.910556
 C         3.625824        -0.691962         0.286414
 O         2.313043        -1.051816        -0.195997
 H        -0.208225        -1.217860         0.128943
 H        -0.597615         0.405203         0.562119
 H        -0.344671        -0.093783        -1.215144
 H         1.329728         1.474633         1.750644
 H         1.573706        -0.151780         2.322466
 H         4.077530         0.614175         2.114631
 H         4.937513         0.992384         0.084533
 H         3.440821         2.204453        -1.663116
 H         3.477195         0.440167        -2.090331
 H         4.154744        -1.627209         0.282858
