19
Iteration:  4297
 C        -0.047034        -0.198432        -0.117845
 C         1.428586         0.092699         0.004192
 C         1.929773         0.533330         1.396722
 C         3.490567         0.443446         1.247180
 C         4.009101         0.665315        -0.160950
 C         3.173168         1.466485        -1.051704
 O         1.850076         0.960110        -1.108266
 C         3.533116        -0.725464         0.191553
 O         2.215598        -1.143521        -0.067675
 H        -0.200400        -1.162026         0.504846
 H        -0.549436         0.684949         0.286237
 H        -0.396888        -0.567490        -1.070286
 H         1.562637         1.555687         1.759335
 H         1.601836        -0.192345         2.138540
 H         4.164214         0.491224         2.126142
 H         5.204515         0.808747         0.056285
 H         3.314691         2.558599        -0.661360
 H         3.548563         1.566239        -2.123877
 H         4.296601        -1.515573         0.231338
