19
Iteration:  1408charge 0 multiplicity 1
 C        -0.099110        -0.355578        -0.054403
 C         1.434751         0.096228        -0.035095
 C         2.023046         0.649213         1.418937
 C         3.469665         0.467734         1.204711
 C         4.072740         0.621924        -0.150448
 C         3.138616         1.235617        -1.190352
 O         1.734459         1.150011        -0.956287
 C         3.583592        -0.736605         0.311366
 O         2.285502        -1.053478        -0.172949
 H        -0.274045        -1.246553         0.583449
 H        -0.663147         0.508045         0.190308
 H        -0.378518        -0.655294        -1.103237
 H         1.785982         1.717932         1.483441
 H         1.519486         0.215336         2.360128
 H         3.929367         0.411722         2.189199
 H         5.150708         0.828053        -0.357105
 H         3.476327         2.256630        -1.057427
 H         3.258995         0.914556        -2.271273
 H         4.203402        -1.605010         0.541167
