19
Iteration:   395
 C        -0.040462        -0.252923         0.081704
 C         1.432734         0.053020        -0.015672
 C         2.057230         0.803027         1.269563
 C         3.475959         0.315108         1.327941
 C         4.050343         0.681903         0.002005
 C         3.125983         1.476461        -1.124536
 O         1.749712         0.922123        -1.155252
 C         3.496152        -0.793787         0.289181
 O         2.260096        -1.160187        -0.226655
 H        -0.031232        -1.109306         0.821094
 H        -0.713850         0.554866         0.340632
 H        -0.309535        -0.555126        -0.922637
 H         2.044097         1.897573         0.917659
 H         1.385598         0.701231         2.144087
 H         4.095929         0.439388         2.247366
 H         5.106431         0.869274        -0.101892
 H         3.106053         2.622232        -0.962812
 H         3.532912         1.286156        -2.139228
 H         4.255514        -1.675483         0.346796
