19
Iteration:  2950charge 0 multiplicity 1
 C         0.037951        -0.349318        -0.120362
 C         1.480506         0.154912         0.036535
 C         1.948356         0.569217         1.453688
 C         3.392113         0.363133         1.303870
 C         4.009271         0.660329        -0.142644
 C         3.156267         1.146642        -1.252774
 O         1.785187         1.240047        -0.903837
 C         3.549719        -0.733967         0.279597
 O         2.290413        -0.961401        -0.258242
 H         0.039106        -1.202769         0.503819
 H        -0.554410         0.439134         0.428867
 H        -0.243502        -0.524606        -1.171847
 H         1.473872         1.561313         1.619701
 H         1.363266        -0.124732         2.144004
 H         3.979053         0.490917         2.209339
 H         5.040876         0.905953        -0.106817
 H         3.448978         2.228229        -1.501075
 H         3.251967         0.433484        -2.122558
 H         3.911476        -1.755302         0.442673
