19
Iteration:  1802
 C        -0.075652        -0.256690        -0.029206
 C         1.405923         0.073261         0.032350
 C         1.958584         0.543714         1.388523
 C         3.481324         0.498245         1.166214
 C         4.049634         0.623186        -0.202482
 C         3.168489         1.161171        -1.261564
 O         1.739453         1.186170        -0.884388
 C         3.602454        -0.755629         0.379173
 O         2.325667        -0.992780        -0.211334
 H        -0.424736        -0.809850         0.930290
 H        -0.708624         0.693953         0.002277
 H        -0.308347        -0.910806        -0.837969
 H         1.549000         1.505594         1.643753
 H         1.575391        -0.211942         2.086140
 H         4.166371         0.683506         1.935792
 H         5.114111         0.844644        -0.127766
 H         3.263503         2.232651        -1.549087
 H         3.368888         0.587615        -2.134808
 H         4.083977        -1.719759         0.455861
