19
Iteration:  1537charge 0 multiplicity 1
 C        -0.011790        -0.343204        -0.063878
 C         1.443221         0.084078         0.073072
 C         1.975257         0.675517         1.473603
 C         3.497255         0.453817         1.226421
 C         4.051851         0.632634        -0.115960
 C         3.137881         1.248455        -1.248940
 O         1.716714         1.094069        -1.004384
 C         3.544628        -0.737139         0.238251
 O         2.251223        -1.025973        -0.179129
 H        -0.187046        -1.066740         0.774469
 H        -0.503509         0.586351         0.131814
 H        -0.097057        -0.691589        -1.144371
 H         1.757352         1.690600         1.493644
 H         1.495461         0.113837         2.319469
 H         4.063622         0.339824         2.108495
 H         5.126343         0.837928        -0.162371
 H         3.264453         2.375444        -1.314495
 H         3.568275         0.779420        -2.185334
 H         4.167702        -1.592802         0.471192
