19
Iteration:  4851
 C         0.027958        -0.116541        -0.018460
 C         1.528945         0.012982         0.039151
 C         2.002782         0.628378         1.330333
 C         3.444037         0.286015         1.275889
 C         3.967680         0.675318        -0.119901
 C         3.103166         1.530316        -0.982425
 O         1.752621         0.929643        -1.131257
 C         3.527556        -0.755600         0.265385
 O         2.276423        -1.154407        -0.226597
 H        -0.284516        -0.993804         0.500805
 H        -0.526784         0.791253         0.321600
 H        -0.305210        -0.212688        -1.145542
 H         1.720974         1.738767         1.408872
 H         1.600165         0.236768         2.231378
 H         4.148060         0.192315         2.121462
 H         4.991563         0.786596        -0.192430
 H         3.019525         2.509193        -0.538926
 H         3.467724         1.531094        -2.031830
 H         4.285223        -1.498341         0.113042
