19
Iteration:  2724charge 0 multiplicity 1
 C        -0.036003        -0.312414        -0.062296
 C         1.429291         0.154159         0.053000
 C         1.910075         0.523509         1.496596
 C         3.447952         0.381560         1.264294
 C         4.050665         0.691450        -0.107169
 C         3.218478         1.276792        -1.250665
 O         1.791724         1.131716        -1.080811
 C         3.565318        -0.712069         0.284854
 O         2.225797        -1.050167        -0.151335
 H        -0.236244        -1.283363         0.254380
 H        -0.661682         0.439620         0.458909
 H        -0.210832        -0.204221        -1.181773
 H         1.675940         1.502353         1.782487
 H         1.391357        -0.141761         2.147923
 H         4.073037         0.415229         2.190754
 H         5.134064         0.767327        -0.266493
 H         3.504528         2.399600        -1.364010
 H         3.538520         0.928793        -2.237579
 H         4.285748        -1.531713         0.335385
