19
Iteration:  1714
 C        -0.013496        -0.171134        -0.026351
 C         1.483031         0.017555         0.087428
 C         1.997773         0.642325         1.348155
 C         3.434392         0.462014         1.204896
 C         3.973020         0.606651        -0.237037
 C         3.091746         1.540625        -1.129822
 O         1.818504         0.917841        -1.154837
 C         3.558218        -0.762934         0.282824
 O         2.214819        -1.183247        -0.007993
 H        -0.294992        -1.077010         0.541344
 H        -0.553363         0.822406         0.276595
 H        -0.070339        -0.401567        -1.113786
 H         1.893760         1.666004         1.582142
 H         1.695506         0.034459         2.199789
 H         4.225183         0.551424         2.017147
 H         5.104104         0.615815        -0.286769
 H         3.199551         2.535674        -0.594191
 H         3.475488         1.638983        -2.144967
 H         4.296685        -1.544490         0.312174
