19
Iteration:  1244
 C         0.024526        -0.142767        -0.074493
 C         1.527476         0.028010         0.020470
 C         1.997260         0.720296         1.345245
 C         3.487096         0.390167         1.209984
 C         4.023349         0.677195        -0.115690
 C         3.047892         1.439188        -1.076516
 O         1.769295         0.894105        -1.109195
 C         3.545654        -0.811772         0.303577
 O         2.231178        -1.151024        -0.130703
 H        -0.191060        -1.010549         0.594379
 H        -0.417769         0.711687         0.420018
 H        -0.419628        -0.326611        -1.041245
 H         1.731652         1.740405         1.487768
 H         1.498505         0.144111         2.235773
 H         4.123668         0.507812         2.081014
 H         5.045905         0.882641        -0.399767
 H         3.044189         2.526710        -0.649935
 H         3.254053         1.502577        -2.119857
 H         4.291437        -1.557308         0.421793
