19
Iteration:  3738
 C         0.018945        -0.405362        -0.160950
 C         1.419186         0.211769         0.000659
 C         1.913801         0.596154         1.480408
 C         3.501702         0.355809         1.278974
 C         4.047607         0.626732        -0.098302
 C         3.209922         1.258277        -1.199965
 O         1.790460         1.208152        -0.936475
 C         3.478446        -0.780377         0.298242
 O         2.232097        -0.973798        -0.261452
 H        -0.162451        -1.286420         0.630131
 H        -0.764982         0.361145         0.052477
 H        -0.206248        -0.884834        -1.110991
 H         1.575166         1.676231         1.559637
 H         1.653369        -0.009960         2.424474
 H         4.070339         0.514276         2.209350
 H         5.102804         0.807824        -0.185552
 H         3.581354         2.359371        -1.388268
 H         3.268159         0.588923        -2.074389
 H         4.251310        -1.592133         0.407826
