19
Iteration:  4009
 C        -0.058920        -0.220360        -0.156562
 C         1.466829         0.023744         0.002723
 C         1.990198         0.607994         1.330080
 C         3.465842         0.362908         1.296989
 C         4.048266         0.630116        -0.100836
 C         3.158497         1.388249        -1.148757
 O         1.703197         1.148287        -0.929716
 C         3.570741        -0.791654         0.323037
 O         2.301870        -1.106578        -0.204165
 H        -0.367696        -0.982394         0.624955
 H        -0.652636         0.692055        -0.114439
 H        -0.243528        -0.568811        -1.120843
 H         1.749043         1.637632         1.369597
 H         1.377389         0.146545         2.132397
 H         4.027155         0.337888         2.248719
 H         5.207521         0.859003        -0.327766
 H         3.369590         2.392071        -0.980913
 H         3.322273         1.075699        -2.185977
 H         4.239552        -1.641748         0.486680
