19
Iteration:  3187
 C         0.086295        -0.281938        -0.110133
 C         1.455106         0.162041         0.022954
 C         1.905556         0.536562         1.456770
 C         3.412013         0.381786         1.294822
 C         4.003591         0.675669        -0.115434
 C         3.217085         1.271764        -1.219571
 O         1.731408         1.155423        -0.884047
 C         3.598497        -0.750592         0.246155
 O         2.259867        -1.023072        -0.261006
 H        -0.251836        -0.913735         0.781033
 H        -0.603242         0.624537        -0.287484
 H        -0.104177        -0.968652        -1.063207
 H         1.523582         1.552618         1.879325
 H         1.421031        -0.239296         2.071431
 H         3.977596         0.440105         2.209197
 H         5.029502         0.869327        -0.164228
 H         3.476299         2.319932        -1.555334
 H         3.251829         0.639485        -2.155469
 H         4.089811        -1.747137         0.250209
