19
Iteration:  2026
 C        -0.002329        -0.139643        -0.006878
 C         1.489499         0.133347         0.010821
 C         1.995656         0.598095         1.421940
 C         3.513821         0.327539         1.324411
 C         3.966500         0.682963        -0.100919
 C         3.119198         1.269657        -1.206598
 O         1.711938         1.029964        -1.107595
 C         3.590911        -0.691781         0.212603
 O         2.241092        -1.090765        -0.112889
 H        -0.212126        -0.756679         0.872359
 H        -0.703793         0.719054        -0.262625
 H        -0.166946        -0.804323        -0.832834
 H         1.868190         1.558808         1.828251
 H         1.555353        -0.114691         2.065690
 H         4.212810         0.347749         2.129713
 H         5.035341         1.024117        -0.235721
 H         3.091270         2.298914        -1.502060
 H         3.508475         0.758774        -2.036985
 H         4.287118        -1.591698         0.185916
