19
Iteration:  2655charge 0 multiplicity 1
 C        -0.043216        -0.134501        -0.091044
 C         1.502074         0.079371         0.033808
 C         2.021100         0.620331         1.311946
 C         3.556789         0.339595         1.221484
 C         3.971453         0.692119        -0.104269
 C         3.082528         1.537753        -0.911454
 O         1.843602         0.864951        -1.169601
 C         3.568136        -0.782802         0.215982
 O         2.139907        -1.139124        -0.104031
 H        -0.450017        -0.471638         0.917189
 H        -0.703105         0.633839        -0.486153
 H        -0.070999        -1.051900        -0.700520
 H         1.839285         1.686056         1.575680
 H         1.633580         0.032636         2.177369
 H         4.232344         0.435653         2.048883
 H         5.023586         0.722751        -0.358100
 H         2.822131         2.584435        -0.623387
 H         3.606074         1.854972        -1.856556
 H         4.230513        -1.645713         0.109839
