19
Iteration:  2679
 C        -0.016087        -0.204882        -0.077314
 C         1.482827         0.005981         0.024748
 C         2.009243         0.830427         1.259987
 C         3.411247         0.224587         1.331150
 C         4.043931         0.541863        -0.203383
 C         3.115570         1.540937        -0.896671
 O         1.715521         0.971186        -1.118677
 C         3.586078        -0.752869         0.250282
 O         2.257020        -1.182765        -0.181588
 H        -0.231292        -0.702821         0.840488
 H        -0.594497         0.732967        -0.076961
 H        -0.231626        -0.974949        -0.911544
 H         1.965616         1.884348         1.168257
 H         1.637730         0.676007         2.276009
 H         4.175597         0.317998         2.090850
 H         5.109829         0.822326        -0.351963
 H         3.070684         2.600925        -0.500916
 H         3.443030         1.933116        -1.883517
 H         4.302871        -1.526453         0.429181
