19
Iteration:  3986charge 0 multiplicity 1
 C         0.080099        -0.392519        -0.121930
 C         1.440673         0.188804         0.012116
 C         1.922895         0.644793         1.485186
 C         3.364798         0.413447         1.255675
 C         4.002552         0.544300        -0.097892
 C         3.184854         1.236581        -1.179119
 O         1.816676         1.179975        -0.896649
 C         3.501510        -0.768452         0.256821
 O         2.256501        -0.962665        -0.305042
 H         0.097434        -1.345213         0.518449
 H        -0.726727         0.309424         0.077854
 H        -0.050013        -0.533873        -1.133026
 H         1.677281         1.649340         1.782816
 H         1.434930         0.001981         2.286701
 H         4.089399         0.554038         2.045883
 H         5.224344         0.822575        -0.193148
 H         3.430505         2.236637        -1.254771
 H         3.334045         0.639616        -2.088303
 H         4.153110        -1.576673         0.401501
