19
Iteration:  3958charge 0 multiplicity 1
 C         0.001249        -0.385274        -0.116831
 C         1.400701         0.106853        -0.016507
 C         1.909693         0.589957         1.421062
 C         3.406655         0.346945         1.309420
 C         4.135155         0.656269        -0.044532
 C         3.182183         1.185834        -1.265233
 O         1.764907         1.334356        -0.903783
 C         3.575089        -0.755544         0.278758
 O         2.266706        -1.014425        -0.245485
 H        -0.146479        -1.312345         0.417592
 H        -0.716412         0.383947         0.231708
 H        -0.284267        -0.366118        -1.241670
 H         1.640739         1.641450         1.696534
 H         1.419834        -0.009903         2.196729
 H         4.069552         0.418269         2.205688
 H         5.085645         0.871410        -0.029891
 H         3.457485         2.218883        -1.743331
 H         3.143748         0.339430        -2.001633
 H         4.303611        -1.603372         0.412996
