19
Iteration:  3953charge 0 multiplicity 1
 C        -0.013599        -0.319406        -0.139725
 C         1.457363         0.099286        -0.008453
 C         1.908958         0.593694         1.424596
 C         3.387236         0.388253         1.265998
 C         4.083396         0.668728        -0.054606
 C         3.153775         1.177047        -1.186154
 O         1.749660         1.311152        -0.904952
 C         3.603895        -0.777746         0.259741
 O         2.305204        -1.043533        -0.244937
 H        -0.310101        -1.297857         0.368790
 H        -0.644810         0.430640         0.342298
 H        -0.253868        -0.471732        -1.150199
 H         1.781154         1.642548         1.645484
 H         1.358192        -0.081475         2.117366
 H         3.929870         0.445761         2.190650
 H         5.300900         0.915540        -0.036431
 H         3.541389         2.018602        -1.664557
 H         3.061787         0.443147        -2.018889
 H         4.193791        -1.643809         0.416569
