19
Iteration:  4365charge 0 multiplicity 1
 C        -0.083163        -0.341616        -0.120387
 C         1.445947         0.177764         0.031982
 C         1.960029         0.521526         1.460441
 C         3.382802         0.343988         1.358612
 C         4.074432         0.671131        -0.118295
 C         3.180522         1.141913        -1.273249
 O         1.752404         1.243062        -0.913842
 C         3.542191        -0.647930         0.281963
 O         2.348724        -0.998376        -0.265797
 H        -0.078002        -1.198813         0.549110
 H        -0.767239         0.547535         0.095036
 H        -0.260379        -0.786063        -1.134844
 H         1.540218         1.495595         1.595657
 H         1.550024        -0.137078         2.304504
 H         4.063256         0.293054         2.138305
 H         5.093327         0.998824        -0.102116
 H         3.525020         2.177349        -1.634538
 H         3.417380         0.504494        -2.124002
 H         4.072931        -1.569488         0.285158
