19
Iteration:  2524charge 0 multiplicity 1
 C        -0.046055        -0.076065        -0.165816
 C         1.518125         0.013782         0.110427
 C         1.902085         0.617637         1.375531
 C         3.409896         0.407895         1.242417
 C         4.019759         0.708136        -0.142740
 C         3.104145         1.247240        -1.170757
 O         1.739425         1.003861        -0.892697
 C         3.621590        -0.793392         0.279911
 O         2.334843        -1.110625        -0.215219
 H        -0.398854        -1.187425         0.032479
 H        -0.491055         0.639559         0.571553
 H        -0.449364         0.282287        -1.067918
 H         1.542222         1.637777         1.310277
 H         1.830949         0.165932         2.363651
 H         4.083241         0.607001         2.058569
 H         5.034915         0.997700        -0.078966
 H         3.252862         2.396015        -1.271270
 H         3.500901         0.894195        -2.283010
 H         4.357912        -1.608720         0.295805
