19
Iteration:   535charge 0 multiplicity 1
 C         0.026181        -0.287140         0.011821
 C         1.491742         0.050818        -0.003186
 C         1.935166         0.612801         1.380949
 C         3.388940         0.567085         1.208624
 C         3.937758         0.640768        -0.181552
 C         3.237760         1.286636        -1.241500
 O         1.811557         1.120546        -0.961728
 C         3.538552        -0.783987         0.295594
 O         2.250144        -1.106992        -0.151401
 H        -0.093051        -1.148507         0.762676
 H        -0.617797         0.514288         0.359186
 H        -0.434436        -0.512195        -0.945665
 H         1.583921         1.700812         1.492572
 H         1.653087         0.067485         2.220695
 H         4.192012         0.496279         1.954921
 H         4.992016         0.812401        -0.086363
 H         3.400405         2.333424        -1.446967
 H         3.348175         0.770352        -2.227173
 H         4.122465        -1.664067         0.623834
