19
Iteration:  1645
 C         0.003697        -0.270853         0.019933
 C         1.489592         0.102437        -0.057649
 C         2.016775         0.690734         1.246359
 C         3.458013         0.418900         1.220880
 C         4.014742         0.565375        -0.242057
 C         3.148773         1.418992        -1.085994
 O         1.748260         1.047961        -1.018496
 C         3.525727        -0.764889         0.302698
 O         2.240344        -1.100473        -0.067012
 H        -0.025948        -0.886121         0.943337
 H        -0.776417         0.492910        -0.030561
 H        -0.239736        -1.088961        -0.799501
 H         1.573973         1.654783         1.411558
 H         1.736364        -0.021114         2.079819
 H         3.775670         0.573747         2.205305
 H         5.067804         0.622419        -0.269475
 H         3.265554         2.506873        -0.770736
 H         3.517457         1.310692        -2.093099
 H         4.206205        -1.624640         0.385985
