19
Iteration:  3486
 C        -0.030596        -0.281922        -0.049653
 C         1.462969         0.073043        -0.070838
 C         2.001282         0.730569         1.310314
 C         3.450188         0.361281         1.327180
 C         4.055297         0.582126        -0.148666
 C         3.162916         1.518470        -0.930346
 O         1.825914         0.959205        -1.098971
 C         3.480325        -0.752549         0.273062
 O         2.229010        -1.149547        -0.210475
 H        -0.223815        -1.013418         0.708761
 H        -0.633258         0.626721         0.195904
 H        -0.322080        -0.703399        -1.076331
 H         1.805063         1.785849         1.264465
 H         1.478314         0.388426         2.244410
 H         4.104336         0.364350         2.217184
 H         5.155414         0.804388        -0.461182
 H         3.098643         2.619306        -0.361134
 H         3.328768         1.642491        -2.040474
 H         4.149777        -1.624270         0.268853
