19
Iteration:   252charge 0 multiplicity 1
 C        -0.060244        -0.324950        -0.043549
 C         1.424669         0.131094         0.002002
 C         1.979881         0.728390         1.411692
 C         3.442413         0.349580         1.317294
 C         4.023769         0.660885        -0.097334
 C         3.116751         1.286642        -1.260411
 O         1.754547         1.082682        -0.988907
 C         3.585996        -0.741213         0.317953
 O         2.293992        -1.073918        -0.244322
 H         0.034828        -0.978074         0.789746
 H        -0.625871         0.521810         0.061477
 H        -0.189889        -0.795778        -0.946368
 H         1.842200         1.868038         1.348318
 H         1.439000         0.395230         2.277798
 H         4.143529         0.111453         2.096801
 H         5.120674         0.815923        -0.189829
 H         3.353491         2.334477        -1.394365
 H         3.504878         0.645797        -2.141397
 H         4.243621        -1.513616         0.603991
