19
Iteration:  1807charge 0 multiplicity 1
 C        -0.118679        -0.238599        -0.047323
 C         1.443711         0.064352         0.012600
 C         1.946478         0.531296         1.408145
 C         3.506427         0.511057         1.152618
 C         4.076449         0.584021        -0.169524
 C         3.115933         1.213839        -1.293900
 O         1.766129         1.165942        -0.874695
 C         3.620850        -0.727278         0.380848
 O         2.285626        -1.025921        -0.196714
 H        -0.385838        -0.758270         0.836793
 H        -0.616132         0.690362        -0.062931
 H        -0.393875        -1.006426        -0.833290
 H         1.528158         1.566715         1.534959
 H         1.669694        -0.196485         2.197208
 H         4.173789         0.671799         2.058072
 H         5.137157         0.852685        -0.257702
 H         3.255939         2.299791        -1.359106
 H         3.305542         0.658531        -2.296190
 H         4.212342        -1.648791         0.552796
