19
Iteration:  3452charge 0 multiplicity 1
 C        -0.065553        -0.101566        -0.054248
 C         1.470208         0.035931        -0.103592
 C         2.027684         0.644068         1.378773
 C         3.429090         0.286322         1.336489
 C         4.032363         0.661244        -0.143439
 C         3.063554         1.513893        -0.969882
 O         1.823774         0.889816        -1.176319
 C         3.577001        -0.761104         0.266860
 O         2.272237        -1.171295        -0.125708
 H        -0.355672        -1.015730         0.475990
 H        -0.510445         0.820696         0.413784
 H        -0.532270        -0.170141        -1.090970
 H         1.897644         1.690090         1.260396
 H         1.378734         0.166333         2.173309
 H         4.157471         0.361050         2.155132
 H         5.047276         1.160801        -0.298475
 H         2.873013         2.662906        -0.515524
 H         3.622677         1.753911        -1.946420
 H         4.282941        -1.662055         0.216566
