19
Iteration:  2462
 C         0.029370        -0.330349        -0.023021
 C         1.458322         0.126926         0.026931
 C         2.015768         0.861548         1.286969
 C         3.423257         0.370494         1.229204
 C         4.048846         0.518876        -0.197331
 C         3.161130         1.513591        -0.963596
 O         1.841139         0.958444        -1.084828
 C         3.460410        -0.781822         0.235375
 O         2.191000        -1.164136        -0.171666
 H        -0.109028        -0.808245         1.016063
 H        -0.725704         0.438041        -0.031407
 H        -0.092172        -1.156569        -0.726591
 H         1.735764         1.900114         1.126502
 H         1.431807         0.469299         2.158583
 H         4.050141         0.465174         2.063425
 H         5.102213         0.715310        -0.323453
 H         3.029676         2.280785        -0.249773
 H         3.504423         1.846017        -1.858576
 H         4.200286        -1.590722         0.333634
