19
Iteration:  4745
 C         0.049298        -0.206521        -0.160549
 C         1.452610         0.180662         0.058000
 C         1.967287         0.477155         1.517226
 C         3.440860         0.362873         1.280550
 C         3.940671         0.715312        -0.079821
 C         3.128376         1.204153        -1.199066
 O         1.779003         1.091293        -0.903907
 C         3.561040        -0.688348         0.217694
 O         2.274391        -1.041432        -0.283577
 H        -0.482624        -0.714896         0.521329
 H        -0.427026         0.760145        -0.133488
 H        -0.156585        -0.742551        -1.170424
 H         1.854203         1.535564         1.822816
 H         1.691279        -0.277105         2.262264
 H         4.174560         0.342181         2.136224
 H         4.887918         0.986418        -0.153295
 H         3.270523         2.312811        -1.538932
 H         3.344952         0.579141        -2.062528
 H         4.311571        -1.490889         0.258282
