19
Iteration:  3838
 C         0.010001        -0.279631        -0.047681
 C         1.471267         0.101332        -0.038463
 C         1.968072         0.673994         1.292456
 C         3.472389         0.318635         1.262986
 C         4.052117         0.629213        -0.072919
 C         3.185563         1.520376        -0.992582
 O         1.739610         1.007902        -1.116677
 C         3.516897        -0.771000         0.292400
 O         2.238121        -1.119248        -0.172736
 H        -0.367874        -0.840000         0.868673
 H        -0.686516         0.569707        -0.044991
 H        -0.165895        -0.860758        -0.964717
 H         1.864750         1.805709         1.377367
 H         1.362656         0.247793         2.120710
 H         4.057249         0.176420         2.181146
 H         5.023497         0.531049        -0.233299
 H         3.270879         2.629756        -0.763129
 H         3.576421         1.475924        -1.993438
 H         4.112125        -1.645092         0.271175
