19
Iteration:   258charge 0 multiplicity 1
 C        -0.069532        -0.364082         0.005073
 C         1.460067         0.150020         0.019618
 C         1.957193         0.698838         1.427893
 C         3.422820         0.386150         1.307240
 C         3.957356         0.679652        -0.097699
 C         3.182781         1.258258        -1.285677
 O         1.791775         1.115152        -1.014063
 C         3.544596        -0.771367         0.299281
 O         2.295002        -1.066994        -0.268345
 H        -0.069887        -1.015442         0.931924
 H        -0.744786         0.629490         0.118366
 H        -0.262833        -1.011439        -0.984074
 H         1.859537         1.766514         1.321255
 H         1.583436         0.316964         2.441072
 H         4.196176         0.349169         2.133671
 H         5.035123         0.834685        -0.028814
 H         3.558550         2.338464        -1.371674
 H         3.516234         0.796505        -2.184206
 H         4.278523        -1.593898         0.574669
