19
Iteration:  4142
 C        -0.004924        -0.262695        -0.167407
 C         1.478839         0.147932        -0.007964
 C         1.882683         0.452233         1.416819
 C         3.382938         0.401125         1.294257
 C         4.081933         0.690248        -0.105709
 C         3.132746         1.193495        -1.303319
 O         1.814431         1.203082        -0.901843
 C         3.575142        -0.714916         0.340207
 O         2.285656        -1.014367        -0.167111
 H        -0.213886        -1.044156         0.459816
 H        -0.550756         0.532253         0.311129
 H        -0.323327        -0.339119        -1.223468
 H         1.452421         1.400037         1.695248
 H         1.447394        -0.347640         1.956438
 H         4.015627         0.551676         2.173515
 H         5.059334         0.846798        -0.038648
 H         3.533075         2.197342        -1.720786
 H         3.166276         0.462913        -2.104192
 H         4.269974        -1.530558         0.543511
