19
Iteration:  4984
 C         0.056662        -0.179215        -0.184896
 C         1.523702         0.108438         0.063078
 C         1.926278         0.448957         1.555295
 C         3.422282         0.321190         1.317417
 C         4.007921         0.738974        -0.127662
 C         3.085190         1.198742        -1.307605
 O         1.724393         1.194620        -0.859222
 C         3.580030        -0.711336         0.252195
 O         2.301130        -1.049578        -0.250830
 H        -0.437499        -0.762180         0.629602
 H        -0.441923         0.774550        -0.165908
 H         0.026919        -0.586905        -1.270764
 H         1.634053         1.532072         1.799840
 H         1.484682        -0.239986         2.274390
 H         4.109394         0.245719         2.153525
 H         4.975471         1.031506        -0.271547
 H         3.393542         2.296029        -1.593845
 H         3.226061         0.530081        -2.235546
 H         4.202594        -1.616495         0.182429
