19
Iteration:   685
 C        -0.080512        -0.254929        -0.180103
 C         1.472838         0.078744         0.121109
 C         2.016966         0.655157         1.428620
 C         3.504495         0.442238         1.265889
 C         4.001941         0.631374        -0.242657
 C         3.131579         1.264823        -1.276119
 O         1.775199         1.104454        -0.967019
 C         3.559792        -0.711827         0.301063
 O         2.252541        -1.099652        -0.031203
 H        -0.573113        -1.027982         0.526071
 H        -0.683542         0.657242        -0.196012
 H        -0.091938        -0.740701        -1.142986
 H         1.734633         1.686296         1.668970
 H         1.579237        -0.116777         2.156030
 H         4.149761         0.497994         2.152735
 H         5.050366         0.561616        -0.371576
 H         3.176018         2.356237        -1.362139
 H         3.374656         0.806072        -2.226926
 H         4.362053        -1.392410         0.310516
