19
Iteration:  1861charge 0 multiplicity 1
 C        -0.091957        -0.285139        -0.039065
 C         1.446105         0.143263         0.003612
 C         2.126533         0.797384         1.384263
 C         3.603454         0.306869         1.284624
 C         4.093516         0.584214        -0.178498
 C         3.066338         1.496258        -1.058302
 O         1.721826         0.880774        -1.176293
 C         3.498390        -0.695405         0.261076
 O         2.180973        -1.135621        -0.070770
 H        -0.227248        -0.951055         0.759665
 H        -0.731328         0.554519        -0.126337
 H        -0.182259        -0.863227        -1.026078
 H         2.048424         1.895816         1.570124
 H         1.573752         0.254039         2.085327
 H         4.212150         0.290002         2.258945
 H         5.117986         0.815736        -0.468676
 H         2.902353         2.466291        -0.601178
 H         3.567961         1.614706        -2.056975
 H         4.167546        -1.549812         0.211039
