19
Iteration:  4630charge 0 multiplicity 1
 C        -0.007046        -0.116090        -0.107031
 C         1.467604        -0.026885         0.056751
 C         1.929426         0.570274         1.348555
 C         3.425959         0.404130         1.223502
 C         3.991834         0.661227        -0.198544
 C         3.111280         1.474359        -1.026946
 O         1.856868         0.958595        -0.977587
 C         3.571589        -0.698099         0.257385
 O         2.244524        -1.171736        -0.213275
 H        -0.435538        -0.855081         0.752410
 H        -0.331251         0.899840         0.209284
 H        -0.231726        -0.376968        -1.127451
 H         1.416224         1.597544         1.431559
 H         1.661919        -0.107617         2.221300
 H         4.156124         0.286858         2.030669
 H         5.089615         0.788089        -0.186246
 H         3.334858         2.536085        -0.680990
 H         3.328114         1.507006        -2.150071
 H         4.308345        -1.474982         0.453013
