19
Iteration:  4988charge 0 multiplicity 1
 C         0.065115        -0.197817        -0.230361
 C         1.468817         0.150606         0.069536
 C         1.947464         0.439187         1.525134
 C         3.478147         0.335627         1.332063
 C         3.984830         0.706278        -0.109751
 C         3.067885         1.220819        -1.286652
 O         1.711002         1.183899        -0.866526
 C         3.589271        -0.713110         0.233807
 O         2.307109        -1.056783        -0.246278
 H        -0.457720        -0.747802         0.681235
 H        -0.533637         0.766370        -0.177539
 H        -0.091857        -0.426841        -1.211469
 H         1.748919         1.402484         1.741902
 H         1.427578        -0.159191         2.338098
 H         4.155081         0.380881         2.217590
 H         5.173417         0.953489        -0.324591
 H         3.349641         2.189720        -1.497559
 H         3.267920         0.492791        -2.084834
 H         4.258002        -1.551730         0.268708
