19
Iteration:  4072charge 0 multiplicity 1
 C        -0.087247        -0.208960        -0.070766
 C         1.453513         0.075634        -0.157896
 C         2.003287         0.700178         1.289241
 C         3.509431         0.392052         1.316536
 C         3.988385         0.596467        -0.104598
 C         3.132910         1.566500        -0.875842
 O         1.827171         0.949016        -1.183591
 C         3.563884        -0.807466         0.237621
 O         2.230529        -1.212429        -0.090356
 H        -0.421509        -0.767523         0.901955
 H        -0.668473         0.732647        -0.061310
 H        -0.272100        -0.837842        -0.929835
 H         1.910656         1.793828         1.394518
 H         1.571582         0.241174         2.235132
 H         4.204388         0.483367         2.147569
 H         5.182133         0.619633        -0.383175
 H         2.730572         2.537952        -0.288326
 H         3.643440         1.884408        -1.801101
 H         4.233512        -1.630940         0.096178
