19
Iteration:  1426charge 0 multiplicity 1
 C         0.024844        -0.205717        -0.075163
 C         1.423150        -0.001831         0.119092
 C         1.966415         0.799996         1.315731
 C         3.506099         0.358904         1.266685
 C         4.020897         0.582157        -0.146073
 C         3.125489         1.396083        -1.154000
 O         1.685544         0.971144        -0.937605
 C         3.586287        -0.779488         0.288681
 O         2.310519        -1.097328        -0.242984
 H        -0.408405        -1.061404         0.541351
 H        -0.672631         0.659223         0.152573
 H        -0.152013        -0.572394        -1.072591
 H         1.570321         1.789413         1.238972
 H         1.505579         0.415861         2.213113
 H         4.247480         0.734464         2.033021
 H         5.103464         0.875857        -0.183190
 H         3.141654         2.503563        -1.105061
 H         3.385776         1.067737        -2.187932
 H         4.310626        -1.576080         0.429936
