19
Iteration:  4117
 C        -0.010573        -0.298306        -0.189084
 C         1.423250         0.152912         0.074414
 C         1.982977         0.654573         1.472236
 C         3.462399         0.417729         1.331855
 C         4.000579         0.580847        -0.068533
 C         3.195420         1.300802        -1.157889
 O         1.763562         1.103501        -1.024363
 C         3.521758        -0.745074         0.243973
 O         2.247862        -1.076775        -0.246869
 H        -0.162083        -1.183887         0.496610
 H        -0.746606         0.430703         0.170294
 H        -0.080853        -0.627078        -1.185535
 H         1.631215         1.682052         1.543608
 H         1.445304         0.022070         2.225419
 H         4.173734         0.550514         2.171639
 H         5.146428         0.741394        -0.140693
 H         3.539227         2.448570        -1.087867
 H         3.487129         0.945266        -2.146602
 H         4.276465        -1.568389         0.355622
