19
Iteration:  4965charge 0 multiplicity 1
 C        -0.008590        -0.243488        -0.092718
 C         1.427854         0.093559         0.092235
 C         1.904347         0.479741         1.422981
 C         3.397100         0.386594         1.231316
 C         3.970994         0.646153        -0.120582
 C         3.163914         1.235488        -1.255318
 O         1.830018         1.211899        -0.810287
 C         3.618627        -0.718052         0.212257
 O         2.296726        -1.023596        -0.318947
 H        -0.374702        -0.768444         0.895755
 H        -0.630035         0.661877        -0.160252
 H        -0.198562        -0.719315        -0.979469
 H         1.499744         1.345247         1.759369
 H         1.612269        -0.288038         2.194138
 H         4.057378         0.681207         2.053478
 H         5.071449         0.911407         0.093567
 H         3.407654         2.225994        -1.528393
 H         3.353575         0.525456        -2.053518
 H         4.290947        -1.512490         0.457264
