19
Iteration:  3691charge 0 multiplicity 1
 C        -0.031911        -0.080738        -0.091577
 C         1.507707        -0.007997        -0.011652
 C         1.984320         0.644410         1.351768
 C         3.441779         0.342707         1.280784
 C         3.954700         0.656439        -0.129495
 C         3.136325         1.531761        -1.024488
 O         1.812600         0.901392        -1.067136
 C         3.555943        -0.765860         0.221146
 O         2.259400        -1.187671        -0.156837
 H        -0.496404        -0.590465         0.736750
 H        -0.449156         0.942723        -0.204806
 H        -0.254350        -0.764710        -0.971762
 H         1.853429         1.675145         1.487524
 H         1.437292         0.087602         2.151144
 H         4.039458         0.511359         2.154778
 H         5.134608         0.782756        -0.077178
 H         2.887066         2.555602        -0.546805
 H         3.584063         1.603507        -2.034622
 H         4.333527        -1.459166         0.273871
