19
Iteration:  2859
 C         0.016392        -0.077558        -0.062089
 C         1.475413        -0.021552         0.005864
 C         1.985869         0.682104         1.266451
 C         3.456686         0.323344         1.240950
 C         4.088497         0.686784        -0.143440
 C         3.065036         1.497876        -0.876635
 O         1.813428         0.855300        -1.165684
 C         3.514503        -0.749158         0.212936
 O         2.245176        -1.210554        -0.136961
 H        -0.405391        -0.458486         0.977202
 H        -0.400843         0.937923        -0.101743
 H        -0.492090        -0.754068        -0.790790
 H         1.659217         1.782631         1.445574
 H         1.557339         0.313095         2.235892
 H         4.052688         0.418563         2.120618
 H         5.122222         1.046028        -0.298811
 H         2.940246         2.513351        -0.225194
 H         3.353594         1.887970        -1.923276
 H         4.257279        -1.499426         0.211568
