19
Iteration:  3998
 C         0.051839        -0.293327        -0.155591
 C         1.460287         0.137680         0.063917
 C         1.895521         0.661975         1.401427
 C         3.434709         0.381777         1.245879
 C         4.059941         0.589480        -0.121795
 C         3.197815         1.288813        -1.132032
 O         1.687345         1.188716        -0.926433
 C         3.573486        -0.795948         0.306677
 O         2.263033        -1.077093        -0.284727
 H        -0.253601        -1.167351         0.524243
 H        -0.610295         0.506001         0.148970
 H        -0.062159        -0.657804        -1.109604
 H         1.539504         1.651245         1.486686
 H         1.670721         0.000408         2.273457
 H         4.070982         0.467596         2.147478
 H         5.237157         0.858602         0.012067
 H         3.395122         2.314728        -1.167492
 H         3.420556         0.955277        -2.156299
 H         4.105720        -1.726526         0.463063
