19
Iteration:  4435charge 0 multiplicity 1
 C        -0.022730        -0.301541        -0.107123
 C         1.450472         0.120075        -0.004286
 C         2.077572         0.655741         1.335393
 C         3.509559         0.341614         1.269447
 C         4.023373         0.644625        -0.065593
 C         3.130079         1.496315        -0.962849
 O         1.739646         0.941861        -1.080226
 C         3.522291        -0.755234         0.169817
 O         2.179543        -1.067122        -0.153938
 H        -0.360734        -1.071008         0.662873
 H        -0.620534         0.540125        -0.353365
 H         0.066553        -0.893401        -1.008936
 H         2.110155         1.803051         1.429297
 H         1.557568         0.297677         2.213847
 H         4.057390         0.282765         2.287130
 H         5.138430         0.890181        -0.174819
 H         3.225272         2.631072        -0.700014
 H         3.454846         1.371821        -1.992852
 H         4.177044        -1.644295         0.310873
