19
Iteration:  2217
 C         0.038360        -0.275435        -0.088650
 C         1.479369         0.062544         0.073575
 C         1.995716         0.706646         1.309823
 C         3.466262         0.404353         1.187739
 C         4.010453         0.509132        -0.250385
 C         3.105749         1.324464        -1.156670
 O         1.698577         1.189198        -0.894831
 C         3.579334        -0.787245         0.365644
 O         2.266312        -1.101029        -0.161264
 H        -0.272095        -0.836339         0.802799
 H        -0.579133         0.632203        -0.276093
 H        -0.203545        -1.045212        -1.007020
 H         1.631070         1.794835         1.284877
 H         1.709805         0.191659         2.271135
 H         4.011189         0.537962         2.080274
 H         5.064399         0.684707        -0.381318
 H         3.345051         2.399101        -1.019815
 H         3.395714         1.230113        -2.260080
 H         4.161327        -1.704826         0.661234
