19
Iteration:  2738charge 0 multiplicity 1
 C        -0.021082        -0.165198        -0.160961
 C         1.475519         0.034605         0.069791
 C         1.944719         0.540489         1.472619
 C         3.409125         0.382108         1.337452
 C         3.922648         0.670550        -0.128801
 C         3.184133         1.231216        -1.347402
 O         1.793995         1.147656        -0.951501
 C         3.609761        -0.698453         0.277805
 O         2.306408        -1.041300        -0.179492
 H        -0.246691        -1.257605         0.148455
 H        -0.632779         0.409286         0.550416
 H        -0.347847        -0.107691        -1.151603
 H         1.388809         1.506405         1.761557
 H         1.660550        -0.167497         2.319529
 H         4.152979         0.585861         2.125611
 H         4.928957         1.009116         0.074020
 H         3.395487         2.215979        -1.585100
 H         3.440504         0.465694        -2.091670
 H         4.165162        -1.670066         0.247203
