19
Iteration:  4894
 C        -0.028294        -0.264091        -0.079461
 C         1.435097         0.073252        -0.000610
 C         2.083677         0.620782         1.335915
 C         3.515271         0.305819         1.260411
 C         4.036453         0.695917        -0.123840
 C         3.123297         1.567160        -0.954400
 O         1.804396         0.950948        -1.100924
 C         3.502613        -0.779432         0.160086
 O         2.203286        -1.122945        -0.105362
 H        -0.464481        -0.996412         0.529439
 H        -0.689789         0.626995         0.080083
 H        -0.346462        -0.390167        -1.203348
 H         1.875385         1.759164         1.570571
 H         1.544127         0.194646         2.170071
 H         4.049260         0.213295         2.230233
 H         5.073893         0.638418        -0.484026
 H         2.942411         2.652234        -0.496242
 H         3.521169         1.665836        -2.027581
 H         4.163954        -1.626401         0.299697
