19
Iteration:  2557
 C         0.012851        -0.364827        -0.136248
 C         1.439647         0.200702         0.025886
 C         1.935836         0.583801         1.458412
 C         3.476641         0.416503         1.243581
 C         4.001982         0.621460        -0.140820
 C         3.226140         1.170091        -1.290978
 O         1.771695         1.295717        -0.919793
 C         3.556976        -0.765960         0.328102
 O         2.216234        -0.990749        -0.189921
 H         0.160008        -1.468449         0.227235
 H        -0.721413        -0.001065         0.598153
 H        -0.309611        -0.425067        -1.146183
 H         1.384533         1.437373         1.821764
 H         1.788560        -0.200912         2.220763
 H         4.063851         0.496011         2.108289
 H         5.046671         0.632917        -0.135432
 H         3.513321         2.224724        -1.441784
 H         3.141609         0.432920        -2.204404
 H         4.130464        -1.700246         0.400319
