19
Iteration:  1916charge 0 multiplicity 1
 C        -0.067936        -0.174690         0.031854
 C         1.468971         0.072201         0.026935
 C         1.997568         0.669802         1.351052
 C         3.500181         0.373675         1.275804
 C         3.995399         0.650961        -0.098470
 C         3.137559         1.394010        -1.179861
 O         1.721743         0.997841        -1.111906
 C         3.568120        -0.794475         0.252762
 O         2.287421        -1.141203        -0.161051
 H        -0.249619        -1.022391         0.650237
 H        -0.581682         0.618951         0.603693
 H        -0.533438        -0.351533        -0.992888
 H         1.857783         1.769856         1.411862
 H         1.592660         0.278691         2.241800
 H         4.043542         0.452831         2.283802
 H         5.037043         0.825606        -0.442648
 H         3.254042         2.476301        -1.114360
 H         3.730195         1.103865        -2.104222
 H         4.308702        -1.536366         0.451444
