19
Iteration:  2401charge 0 multiplicity 1
 C         0.022078        -0.175745        -0.054190
 C         1.492126         0.043463         0.115111
 C         1.921996         0.453575         1.465543
 C         3.426072         0.472098         1.268838
 C         3.968563         0.691591        -0.231042
 C         3.187823         1.231056        -1.315714
 O         1.810723         1.116639        -0.944237
 C         3.517637        -0.662813         0.280525
 O         2.272008        -1.065303        -0.167942
 H        -0.410172        -0.137802         0.897530
 H        -0.349421         0.628092        -0.704389
 H        -0.216197        -1.142219        -0.625122
 H         1.287504         1.300689         1.778414
 H         1.578525        -0.413147         2.017147
 H         4.117867         0.504587         2.103874
 H         5.070924         0.698263        -0.177742
 H         3.410061         2.369146        -1.453725
 H         3.431054         0.874445        -2.404999
 H         4.128782        -1.509240         0.566680
