19
Iteration:  4293charge 0 multiplicity 1
 C        -0.007880        -0.181059        -0.096318
 C         1.450995         0.108838        -0.004217
 C         1.928476         0.546108         1.396781
 C         3.480470         0.447974         1.237214
 C         3.979523         0.658738        -0.130882
 C         3.168390         1.487773        -1.051366
 O         1.843528         0.916283        -1.105468
 C         3.540801        -0.699955         0.177987
 O         2.212019        -1.166715        -0.071232
 H        -0.148862        -0.997639         0.519407
 H        -0.501254         0.725545         0.181089
 H        -0.329452        -0.487637        -1.107239
 H         1.606021         1.513153         1.737011
 H         1.535780        -0.188497         2.096652
 H         4.188077         0.374056         2.095926
 H         5.005506         0.666937        -0.037977
 H         3.080286         2.439584        -0.652043
 H         3.669173         1.612279        -1.977662
 H         4.321795        -1.450768         0.165131
