19
Iteration:  3205
 C        -0.032881        -0.199655        -0.129760
 C         1.478596         0.127735         0.054755
 C         1.984372         0.475492         1.441534
 C         3.483290         0.299783         1.310543
 C         3.946509         0.701550        -0.071856
 C         3.107774         1.283301        -1.188127
 O         1.777486         1.142529        -1.069426
 C         3.589648        -0.669317         0.250449
 O         2.276608        -1.082496        -0.176881
 H        -0.452353        -0.799260         0.622254
 H        -0.712326         0.664916        -0.191803
 H        -0.227046        -0.846039        -1.016500
 H         1.650856         1.537710         1.724098
 H         1.611301        -0.187980         2.233500
 H         4.173909         0.409368         2.099855
 H         5.088056         0.809171         0.102548
 H         3.225048         2.329198        -1.205079
 H         3.577909         0.950684        -2.113097
 H         4.317760        -1.423875         0.220967
