19
Iteration:  4696
 C        -0.010323        -0.280086        -0.018244
 C         1.446475         0.077489         0.073583
 C         1.949312         0.745747         1.299731
 C         3.468627         0.357543         1.252649
 C         4.023599         0.582039        -0.120150
 C         3.193883         1.489618        -0.991180
 O         1.812673         1.045114        -1.036519
 C         3.512893        -0.766514         0.189869
 O         2.211404        -1.152173        -0.258498
 H        -0.140702        -1.321663         0.578721
 H        -0.844440         0.335627         0.398486
 H        -0.164888        -0.688697        -0.987771
 H         1.680148         1.840256         1.282552
 H         1.557562         0.191655         2.173833
 H         4.125595         0.404775         2.093003
 H         5.192667         0.733400        -0.181142
 H         3.145112         2.494491        -0.583478
 H         3.626309         1.478674        -2.044910
 H         4.228605        -1.599979         0.297584
