19
Iteration:  2996charge 0 multiplicity 1
 C        -0.013755        -0.184642        -0.168047
 C         1.492011         0.043505         0.015173
 C         1.903025         0.553009         1.393655
 C         3.433943         0.367785         1.228167
 C         3.967613         0.640949        -0.132867
 C         3.099041         1.290049        -1.222301
 O         1.728149         1.142755        -0.845092
 C         3.647038        -0.742722         0.339503
 O         2.339007        -1.067225        -0.213696
 H        -0.472522        -0.656925         0.724781
 H        -0.263241         0.849956        -0.228094
 H        -0.161706        -0.638573        -1.079487
 H         1.648649         1.561450         1.544197
 H         1.590273        -0.008425         2.337451
 H         4.091083         0.464160         2.107232
 H         5.083565         0.775545        -0.099979
 H         3.400615         2.320131        -1.367326
 H         3.129155         0.725715        -2.214991
 H         4.338240        -1.587932         0.329489
