19
Iteration:  4990
 C         0.058627        -0.202081        -0.233317
 C         1.438362         0.165658         0.073820
 C         1.962249         0.428118         1.503363
 C         3.507491         0.340761         1.338996
 C         3.979142         0.687359        -0.103829
 C         3.062992         1.225610        -1.265364
 O         1.706026         1.179706        -0.870856
 C         3.597267        -0.712552         0.225350
 O         2.308922        -1.057761        -0.244549
 H        -0.411294        -0.732294         0.585713
 H        -0.553562         0.748194        -0.181092
 H        -0.173798        -0.425575        -1.281293
 H         1.755652         1.506094         1.747651
 H         1.444741        -0.118823         2.325395
 H         4.163515         0.457418         2.213711
 H         5.150878         0.879076        -0.305536
 H         3.327896         2.210449        -1.484109
 H         3.278428         0.496472        -2.007517
 H         4.310283        -1.534888         0.317417
