19
Iteration:  3495charge 0 multiplicity 1
 C        -0.035801        -0.339525        -0.087335
 C         1.437935         0.123365        -0.005287
 C         1.926038         0.708073         1.330634
 C         3.550435         0.309938         1.256931
 C         3.994111         0.641116        -0.125856
 C         3.172749         1.481362        -1.006092
 O         1.820468         1.028726        -1.111158
 C         3.542547        -0.779335         0.271078
 O         2.201055        -1.113554        -0.159514
 H        -0.165398        -1.018304         0.750135
 H        -0.702895         0.565736         0.042686
 H        -0.384819        -0.823096        -1.066803
 H         1.857021         1.793209         1.346038
 H         1.393514         0.306588         2.298254
 H         4.123391         0.231505         2.201230
 H         5.109719         0.674245        -0.173222
 H         3.268175         2.524135        -0.532921
 H         3.668564         1.664412        -2.031254
 H         4.236974        -1.677760         0.428134
