19
Iteration:  1665
 C        -0.021489        -0.232948         0.040803
 C         1.481393         0.080637         0.068820
 C         1.980331         0.765376         1.348140
 C         3.477714         0.401993         1.270808
 C         4.031968         0.607010        -0.199250
 C         3.082134         1.495888        -1.029332
 O         1.782737         0.897396        -1.167178
 C         3.542459        -0.815070         0.247122
 O         2.245872        -1.176609        -0.185023
 H        -0.376308        -0.677177         1.004232
 H        -0.376474         0.747251        -0.044726
 H        -0.205658        -0.926607        -0.804510
 H         1.715047         1.882217         1.080464
 H         1.490538         0.489569         2.316848
 H         4.214074         0.472482         2.014323
 H         5.076350         0.839044        -0.299599
 H         3.028469         2.468508        -0.506325
 H         3.600257         1.734564        -1.995226
 H         4.286384        -1.585118         0.443962
