19
Iteration:  2129
 C        -0.035468        -0.197497        -0.010143
 C         1.474766         0.045750         0.063485
 C         1.945292         0.671765         1.345847
 C         3.466332         0.479154         1.176635
 C         4.118100         0.558715        -0.192939
 C         3.202769         1.330056        -1.168964
 O         1.685628         1.000934        -0.943708
 C         3.562425        -0.732246         0.310668
 O         2.259834        -1.084879        -0.191252
 H        -0.428130        -1.019936         0.606815
 H        -0.411877         0.699173         0.420441
 H        -0.288464        -0.443737        -1.108691
 H         1.432616         1.668794         1.396614
 H         1.702700         0.001707         2.232708
 H         4.158337         0.392839         2.043392
 H         5.079983         0.990300        -0.347452
 H         3.120045         2.422215        -1.194173
 H         3.273720         0.923563        -2.224109
 H         4.230484        -1.535806         0.587147
