19
Iteration:  2297
 C        -0.044682        -0.157296         0.028300
 C         1.480928         0.017588        -0.007918
 C         1.997097         0.720402         1.307401
 C         3.471753         0.459619         1.179179
 C         4.013652         0.579972        -0.245600
 C         3.127758         1.507722        -1.012465
 O         1.814325         0.939030        -1.090286
 C         3.530378        -0.782634         0.320489
 O         2.269722        -1.247690        -0.109662
 H        -0.527835        -1.139781         0.285932
 H        -0.514347         0.607822         0.678639
 H        -0.336123         0.050617        -0.966559
 H         1.606854         1.742383         1.110441
 H         1.473638         0.322950         2.228793
 H         4.146640         0.578891         2.102351
 H         5.097801         0.785106        -0.349911
 H         2.915940         2.450557        -0.543083
 H         3.480005         1.617953        -2.113938
 H         4.201825        -1.610615         0.477790
