19
Iteration:   548charge 0 multiplicity 1
 C         0.029241        -0.234593        -0.086632
 C         1.474469         0.037683         0.059849
 C         1.941043         0.673128         1.437937
 C         3.481070         0.562380         1.235450
 C         4.030861         0.578646        -0.190750
 C         3.146529         1.290260        -1.246394
 O         1.775249         1.060102        -0.961531
 C         3.539601        -0.687928         0.290020
 O         2.212275        -1.200885        -0.140059
 H        -0.299532        -1.161736         0.491963
 H        -0.406459         0.668036         0.376762
 H        -0.288254        -0.392790        -1.160921
 H         1.382881         1.598467         1.601600
 H         1.644222         0.025854         2.185153
 H         4.042413         0.907453         2.114946
 H         5.121807         0.688809        -0.438115
 H         3.366083         2.346954        -1.078264
 H         3.456795         0.992840        -2.202444
 H         4.270973        -1.433784         0.291514
