19
Iteration:  4763
 C        -0.073024        -0.213182        -0.203509
 C         1.455846         0.046307         0.073738
 C         1.967420         0.522704         1.533223
 C         3.449190         0.309525         1.304995
 C         4.075858         0.750293        -0.098987
 C         3.145407         1.213704        -1.301484
 O         1.742691         1.203749        -0.824113
 C         3.629593        -0.704632         0.209505
 O         2.266993        -1.013709        -0.228260
 H        -0.536225        -1.007501         0.509365
 H        -0.675239         0.721822        -0.418137
 H         0.039406        -0.851411        -1.139404
 H         1.417356         1.531749         1.629130
 H         1.549874        -0.209709         2.217120
 H         4.116278         0.431662         2.156153
 H         5.204288         0.918589        -0.276794
 H         3.419807         2.198259        -1.565424
 H         3.188525         0.411362        -2.076837
 H         4.126020        -1.642414         0.151272
