19
Iteration:  4789
 C         0.044589        -0.261110        -0.196742
 C         1.489706         0.091897        -0.021945
 C         1.969195         0.608037         1.436875
 C         3.417141         0.413095         1.190511
 C         3.980840         0.570526        -0.152553
 C         3.103501         1.254872        -1.172400
 O         1.726564         1.265824        -0.759174
 C         3.543225        -0.804134         0.342052
 O         2.333982        -1.057124        -0.273789
 H        -0.082322        -0.890482         0.622973
 H        -0.677840         0.528645        -0.119132
 H        -0.135642        -0.980999        -1.052689
 H         1.504045         1.558903         1.553075
 H         1.664066        -0.169090         2.160602
 H         4.149663         0.531291         2.005701
 H         4.975250         0.802081        -0.231522
 H         3.523871         2.328232        -1.181558
 H         3.165993         0.849208        -2.188472
 H         4.172183        -1.737481         0.401874
