19
Iteration:  1865charge 0 multiplicity 1
 C        -0.089885        -0.303333        -0.011339
 C         1.453885         0.148800        -0.009770
 C         2.108172         0.809748         1.356230
 C         3.607276         0.327586         1.269116
 C         4.099519         0.584841        -0.168991
 C         3.070300         1.498146        -1.021301
 O         1.728453         0.873166        -1.207240
 C         3.451846        -0.723341         0.276940
 O         2.209328        -1.127227        -0.089835
 H        -0.294974        -0.987569         0.837125
 H        -0.844567         0.556577        -0.027728
 H        -0.218352        -0.747976        -0.951663
 H         1.978708         1.858099         1.555156
 H         1.564077         0.290803         2.270218
 H         4.245943         0.198895         2.118577
 H         5.178343         0.629921        -0.448780
 H         2.973655         2.509238        -0.565185
 H         3.545070         1.705328        -2.013395
 H         4.257924        -1.439248         0.230068
