19
Iteration:  4567
 C         0.070789        -0.422892        -0.147040
 C         1.454316         0.133681         0.059613
 C         1.894552         0.675598         1.451657
 C         3.391130         0.329028         1.231090
 C         4.012872         0.561221        -0.125511
 C         3.156606         1.212772        -1.192981
 O         1.768824         1.239828        -0.771275
 C         3.571505        -0.741815         0.275883
 O         2.274311        -0.981885        -0.379944
 H        -0.185038        -0.936299         0.858870
 H        -0.589623         0.471372        -0.234208
 H        -0.226203        -0.892690        -1.032116
 H         1.628451         1.816508         1.628355
 H         1.491699         0.237985         2.328807
 H         4.059632         0.493890         2.004522
 H         5.191697         0.864639         0.051152
 H         3.500247         2.231305        -1.502985
 H         3.286015         0.739016        -2.190795
 H         4.336195        -1.490558         0.424057
