19
Iteration:  2820
 C         0.029397        -0.325746        -0.075315
 C         1.405158         0.152989        -0.021622
 C         1.998931         0.645571         1.379443
 C         3.488074         0.323873         1.278863
 C         4.032162         0.623538        -0.098804
 C         3.175322         1.376843        -1.114385
 O         1.716526         1.096775        -1.045445
 C         3.575207        -0.748377         0.274500
 O         2.209374        -1.086075        -0.179357
 H        -0.279949        -0.682067         0.853653
 H        -0.517469         0.615425        -0.296218
 H        -0.226678        -1.002662        -0.937877
 H         1.829058         1.705530         1.481974
 H         1.560212         0.092843         2.254712
 H         4.078531         0.366061         2.221960
 H         5.118868         0.749860        -0.138278
 H         3.240415         2.492010        -0.996060
 H         3.642934         1.243134        -2.074456
 H         4.091074        -1.708279         0.300518
