19
Iteration:   174
 C        -0.042020        -0.256191        -0.024460
 C         1.422094         0.077368        -0.035332
 C         2.092021         0.757245         1.391393
 C         3.497723         0.402708         1.296045
 C         3.925361         0.631952        -0.122484
 C         3.090035         1.400678        -1.045536
 O         1.822095         0.935235        -1.160547
 C         3.553141        -0.782113         0.268728
 O         2.239408        -1.146083        -0.150553
 H        -0.188426        -0.961918         0.737026
 H        -0.544412         0.634602         0.311305
 H        -0.395703        -0.616505        -0.985795
 H         1.736365         1.877461         1.396908
 H         1.557884         0.394368         2.250404
 H         4.288332         0.681942         2.045538
 H         4.977534         0.967798        -0.310561
 H         3.096605         2.465248        -0.762252
 H         3.541816         1.401240        -2.111746
 H         4.291364        -1.635784         0.209713
