19
Iteration:  1953charge 0 multiplicity 1
 C         0.009627        -0.274712        -0.158475
 C         1.482213         0.118273         0.150350
 C         1.973943         0.583914         1.510401
 C         3.459101         0.443109         1.222297
 C         4.003699         0.615516        -0.232953
 C         3.092974         1.231079        -1.285368
 O         1.791846         1.199653        -0.925477
 C         3.567189        -0.720126         0.258688
 O         2.261059        -1.091011        -0.123048
 H        -0.374872        -1.097956         0.519947
 H        -0.635610         0.642843        -0.129509
 H        -0.087409        -0.551201        -1.163889
 H         1.634899         1.603044         1.677908
 H         1.667293        -0.122318         2.402095
 H         4.121283         0.539391         2.028628
 H         5.098470         0.701244        -0.241192
 H         3.317308         2.258170        -1.612285
 H         2.973582         0.578690        -2.271224
 H         4.182429        -1.619393         0.540971
