19
Iteration:  3362
 C         0.029389        -0.315371        -0.130339
 C         1.501445         0.164359         0.077322
 C         1.880740         0.567034         1.519857
 C         3.417410         0.304136         1.279355
 C         4.009792         0.709254        -0.073973
 C         3.209857         1.169323        -1.260773
 O         1.781229         1.186379        -0.876868
 C         3.516667        -0.720400         0.233598
 O         2.293299        -0.959134        -0.317440
 H        -0.457280        -0.898230         0.759258
 H        -0.688193         0.482444        -0.356705
 H         0.086352        -1.018628        -0.938679
 H         1.712279         1.665104         1.706967
 H         1.531283        -0.168919         2.290651
 H         4.063479         0.289327         2.171041
 H         4.950800         0.956717        -0.101588
 H         3.232205         2.252945        -1.676042
 H         3.317816         0.510059        -2.134401
 H         4.084792        -1.606301         0.198863
