19
Iteration:  3891
 C        -0.018730        -0.235532        -0.118525
 C         1.511666         0.166357        -0.046088
 C         1.990386         0.602920         1.309009
 C         3.478123         0.352966         1.290596
 C         4.016268         0.654509        -0.107032
 C         3.125269         1.503146        -1.040931
 O         1.816601         0.978185        -1.064772
 C         3.552611        -0.755246         0.237005
 O         2.181398        -1.169227        -0.087552
 H        -0.269194        -0.803619         0.861201
 H        -0.676345         0.621086        -0.246248
 H        -0.212252        -0.783005        -0.995002
 H         1.802852         1.609522         1.588288
 H         1.444844        -0.028331         2.041027
 H         4.084475         0.552857         2.179078
 H         5.056180         0.726879        -0.152947
 H         3.089852         2.550208        -0.608761
 H         3.568552         1.411174        -2.027439
 H         4.083409        -1.647559         0.055739
