19
Iteration:   452
 C        -0.029366        -0.240485        -0.157787
 C         1.422366        -0.033299         0.054482
 C         1.993605         0.602676         1.427051
 C         3.474028         0.582967         1.179833
 C         3.958132         0.583886        -0.236120
 C         3.187953         1.376680        -1.171195
 O         1.819414         1.102063        -1.028893
 C         3.520443        -0.732603         0.303613
 O         2.236281        -1.152028        -0.020302
 H        -0.414096        -0.842605         0.654408
 H        -0.437169         0.753844        -0.060787
 H        -0.241996        -0.988326        -0.967362
 H         1.504043         1.498059         1.781781
 H         1.800632        -0.223466         2.350829
 H         4.146727         0.797701         2.016193
 H         5.054445         0.602739        -0.507056
 H         3.460108         2.428786        -0.771196
 H         3.516377         1.249883        -2.330616
 H         4.197857        -1.527724         0.371221
