19
Iteration:   467charge 0 multiplicity 1
 C        -0.019978        -0.281102        -0.118736
 C         1.474345         0.096470         0.050561
 C         1.902930         0.641451         1.386824
 C         3.467578         0.448850         1.218347
 C         4.046028         0.588193        -0.198189
 C         3.159645         1.330048        -1.215327
 O         1.741095         1.106642        -0.927645
 C         3.596177        -0.726524         0.236311
 O         2.261695        -1.129066        -0.038915
 H        -0.318283        -0.744470         0.812931
 H        -0.629008         0.622449        -0.365930
 H        -0.147877        -0.812138        -1.065567
 H         1.581569         1.700482         1.423520
 H         1.497047         0.019491         2.264904
 H         4.099773         0.486249         2.102810
 H         5.125537         0.787629        -0.248765
 H         3.337306         2.413082        -1.293872
 H         3.397459         0.924095        -2.289324
 H         4.296795        -1.579481         0.362660
