19
Iteration:  1727charge 0 multiplicity 1
 C        -0.002336        -0.260890        -0.073897
 C         1.475903         0.067772         0.025294
 C         1.988651         0.648329         1.381839
 C         3.518744         0.501698         1.176505
 C         3.993847         0.545145        -0.291968
 C         3.167193         1.415097        -1.124152
 O         1.792535         0.968816        -0.978775
 C         3.502791        -0.709660         0.358976
 O         2.236336        -1.126796        -0.117514
 H        -0.435373        -1.087867         0.560674
 H        -0.473600         0.638567         0.419263
 H        -0.453687        -0.297279        -1.023762
 H         1.466742         1.594252         1.438557
 H         1.651953         0.030496         2.170750
 H         4.085473         0.764949         2.031702
 H         5.089437         0.620600        -0.449886
 H         3.121127         2.488206        -0.823920
 H         3.394735         1.434078        -2.230432
 H         4.164201        -1.528889         0.563790
