19
Iteration:  2531
 C        -0.037316        -0.133759        -0.139245
 C         1.478492         0.006260         0.015777
 C         1.918737         0.609375         1.388805
 C         3.436845         0.423982         1.252561
 C         4.016288         0.675935        -0.146190
 C         3.142993         1.236049        -1.258537
 O         1.725515         1.099843        -0.849671
 C         3.653287        -0.739245         0.314481
 O         2.307077        -1.123930        -0.206207
 H        -0.392704        -1.103453        -0.027779
 H        -0.514112         0.485442         0.623818
 H        -0.289979         0.211077        -1.166058
 H         1.502766         1.646304         1.450144
 H         1.616067         0.066464         2.314502
 H         4.104422         0.502047         2.172788
 H         5.135888         0.794185        -0.078574
 H         3.272789         2.268460        -1.209289
 H         3.224046         0.785507        -2.236768
 H         4.315398        -1.588364         0.469742
