19
Iteration:  2660
 C        -0.041020        -0.162574        -0.071070
 C         1.491353         0.117225        -0.000444
 C         2.030966         0.662069         1.302845
 C         3.555765         0.321489         1.219252
 C         3.985567         0.682986        -0.110918
 C         3.060059         1.533665        -0.913083
 O         1.827850         0.884645        -1.148475
 C         3.568955        -0.787417         0.217335
 O         2.185580        -1.164370        -0.094524
 H        -0.461952        -0.456272         0.848682
 H        -0.672644         0.647270        -0.491777
 H        -0.204690        -1.018388        -0.790558
 H         1.964596         1.746587         1.374041
 H         1.501745         0.140864         2.085518
 H         4.117624         0.270434         2.189659
 H         5.065863         0.674608        -0.325467
 H         2.765561         2.501705        -0.464004
 H         3.517497         1.852150        -1.833242
 H         4.180863        -1.675361         0.112847
