19
Iteration:  4340
 C         0.099249        -0.345336        -0.146160
 C         1.534801         0.142960         0.005481
 C         1.968166         0.729207         1.412475
 C         3.368052         0.350513         1.341716
 C         3.970217         0.613492        -0.070921
 C         3.079754         1.202435        -1.119714
 O         1.717343         1.195199        -0.867240
 C         3.608548        -0.792892         0.249723
 O         2.252608        -1.033564        -0.330571
 H         0.116122        -1.395035         0.285487
 H        -0.493185         0.442167         0.257494
 H        -0.133892        -0.474639        -1.175304
 H         1.716117         1.845466         1.349828
 H         1.471888         0.355491         2.273419
 H         4.048046         0.546228         2.178631
 H         5.124467         1.011179        -0.309121
 H         3.282613         2.140428        -1.509396
 H         3.549836         0.566269        -1.940639
 H         4.054978        -1.794258         0.236240
