19
Iteration:  2946charge 0 multiplicity 1
 C         0.023176        -0.360449        -0.129874
 C         1.479192         0.167783         0.039439
 C         1.925637         0.576523         1.446267
 C         3.418082         0.373508         1.310033
 C         3.990956         0.632946        -0.128083
 C         3.147542         1.184830        -1.284629
 O         1.789989         1.253784        -0.902448
 C         3.569624        -0.749082         0.298762
 O         2.289307        -1.002703        -0.273203
 H        -0.013722        -1.226681         0.583794
 H        -0.495603         0.399102         0.469868
 H        -0.303019        -0.493209        -1.214347
 H         1.527901         1.665334         1.510067
 H         1.439500        -0.022886         2.228221
 H         4.013763         0.435601         2.232953
 H         5.049503         0.991046        -0.120635
 H         3.509989         2.235236        -1.325083
 H         3.173601         0.464739        -2.140314
 H         3.988088        -1.739201         0.508456
