19
Iteration:  3042charge 0 multiplicity 1
 C        -0.063884        -0.341058        -0.068685
 C         1.481235         0.139342         0.030315
 C         2.020306         0.681495         1.321949
 C         3.506314         0.263513         1.307677
 C         4.094321         0.627842        -0.133227
 C         3.133456         1.537299        -1.025186
 O         1.804944         0.956266        -1.175472
 C         3.477489        -0.779337         0.244530
 O         2.168497        -1.033369        -0.099140
 H        -0.117683        -1.108982         0.768897
 H        -0.800283         0.471932        -0.079426
 H         0.018625        -0.990437        -1.010442
 H         1.930163         1.778216         1.569555
 H         1.515600         0.201384         2.188770
 H         4.054925         0.404828         2.267825
 H         5.184964         0.895533        -0.418026
 H         2.947372         2.567487        -0.578498
 H         3.658185         1.803247        -2.007569
 H         4.046037        -1.715717         0.107748
