19
Iteration:  3368charge 0 multiplicity 1
 C         0.038266        -0.362679        -0.137068
 C         1.454521         0.171598         0.002017
 C         1.951289         0.592229         1.491255
 C         3.404100         0.324615         1.259921
 C         4.008787         0.728908        -0.050413
 C         3.184772         1.162438        -1.248869
 O         1.742641         1.224934        -0.828503
 C         3.542723        -0.777625         0.232041
 O         2.283780        -0.961859        -0.296123
 H        -0.312850        -0.812802         0.731327
 H        -0.553924         0.538732        -0.350561
 H        -0.008509        -1.055799        -1.024329
 H         1.596699         1.627836         1.655284
 H         1.559318        -0.007165         2.297159
 H         3.961877         0.275870         2.201405
 H         5.225032         0.872792        -0.176269
 H         3.345650         2.219847        -1.551833
 H         3.458570         0.463759        -2.069938
 H         4.096987        -1.764324         0.246931
