19
Iteration:  3355charge 0 multiplicity 1
 C         0.016923        -0.257385        -0.110629
 C         1.462298         0.134857         0.142201
 C         1.873872         0.525766         1.516660
 C         3.408793         0.311373         1.348867
 C         3.997421         0.666690        -0.116614
 C         3.172304         1.223327        -1.275164
 O         1.822465         1.143318        -0.932222
 C         3.553355        -0.663947         0.242465
 O         2.272900        -0.970342        -0.337887
 H        -0.351967        -0.868969         0.714096
 H        -0.739744         0.491660        -0.412178
 H         0.095592        -0.957660        -0.960898
 H         1.698239         1.505028         1.801830
 H         1.417336        -0.193665         2.227415
 H         4.226684         0.361421         2.030742
 H         5.132117         1.051134         0.010889
 H         3.460951         2.149038        -1.610533
 H         3.227190         0.520161        -2.160132
 H         4.293645        -1.475086         0.257099
