19
Iteration:  1997charge 0 multiplicity 1
 C        -0.001357        -0.304045        -0.051593
 C         1.445856         0.087419         0.111854
 C         1.960356         0.646199         1.467183
 C         3.449421         0.436200         1.289492
 C         4.055718         0.581129        -0.217828
 C         3.151212         1.144942        -1.291304
 O         1.745178         1.203176        -0.875759
 C         3.537861        -0.726632         0.281906
 O         2.261292        -0.978576        -0.296238
 H        -0.460243        -0.839844         0.841506
 H        -0.707441         0.416051        -0.457602
 H         0.082594        -1.053690        -0.809058
 H         1.730836         1.702183         1.661450
 H         1.621241         0.011885         2.371994
 H         4.248947         0.373137         2.009126
 H         5.065259         0.967660        -0.224346
 H         3.352825         2.206155        -1.522914
 H         3.437372         0.461785        -2.227145
 H         4.140078        -1.582394         0.581603
