19
Iteration:  4222charge 0 multiplicity 1
 C         0.046146        -0.321291        -0.079211
 C         1.540729         0.100932        -0.040458
 C         1.971075         0.621068         1.423053
 C         3.381072         0.400074         1.243086
 C         3.992992         0.644745        -0.145464
 C         3.226327         1.514670        -1.092887
 O         1.814863         1.033467        -1.048805
 C         3.468907        -0.831821         0.282711
 O         2.162038        -1.079802        -0.169169
 H        -0.106147        -1.004746         0.886589
 H        -0.660198         0.509177        -0.336483
 H        -0.041025        -1.077710        -0.912073
 H         1.627561         1.709278         1.411897
 H         1.525466         0.101768         2.307892
 H         4.106984         0.462239         2.076262
 H         5.189434         0.797542        -0.149976
 H         3.435775         2.542922        -0.679881
 H         3.476301         1.479569        -2.213589
 H         4.090864        -1.692402         0.550416
