19
Iteration:  4646charge 0 multiplicity 1
 C        -0.029842        -0.132344        -0.121149
 C         1.477674         0.048055        -0.031693
 C         1.994171         0.612905         1.358586
 C         3.512467         0.416728         1.224814
 C         4.046680         0.629504        -0.139890
 C         3.123047         1.555791        -0.950498
 O         1.743434         0.928981        -1.061090
 C         3.548966        -0.801210         0.213827
 O         2.262555        -1.213838        -0.117436
 H        -0.492392        -0.915886         0.360971
 H        -0.477047         0.799499         0.233924
 H        -0.427803        -0.335928        -1.160305
 H         1.797864         1.711471         1.463545
 H         1.579539         0.081354         2.186327
 H         4.011026         0.626724         2.189706
 H         5.141274         0.801507        -0.350434
 H         2.792331         2.452228        -0.420905
 H         3.470398         1.648567        -1.968775
 H         4.240983        -1.651484         0.219732
