19
Iteration:  1593
 C         0.000792        -0.216136        -0.143770
 C         1.485188         0.077875         0.110533
 C         1.930197         0.645533         1.399549
 C         3.546056         0.395125         1.288430
 C         4.020821         0.725520        -0.168365
 C         3.049173         1.079929        -1.263366
 O         1.671806         1.147428        -0.846355
 C         3.617131        -0.715784         0.299218
 O         2.306611        -1.045808        -0.233210
 H        -0.444534        -1.079266         0.330206
 H        -0.580482         0.702578         0.074327
 H         0.151390        -0.513460        -1.222918
 H         1.712669         1.649746         1.462902
 H         1.413841         0.141713         2.235519
 H         4.156619         0.543407         2.169884
 H         5.065680         0.861640        -0.166418
 H         3.329786         2.050767        -1.702157
 H         3.269993         0.328580        -2.030417
 H         4.282530        -1.582240         0.410571
