19
Iteration:   605
 C         0.078586        -0.278543         0.032928
 C         1.486112         0.122184         0.059054
 C         2.020318         0.772563         1.243318
 C         3.481589         0.379547         1.250590
 C         4.000871         0.607463        -0.195663
 C         3.134904         1.505103        -1.047942
 O         1.817514         0.861756        -1.115167
 C         3.435547        -0.760400         0.264748
 O         2.194619        -1.118823        -0.116660
 H        -0.102472        -0.949265         0.861270
 H        -0.703678         0.553420         0.227999
 H        -0.315165        -0.740787        -0.914581
 H         1.736123         1.765563         1.176375
 H         1.476353         0.288350         2.076677
 H         4.019396         0.361456         2.193578
 H         5.109056         0.712345        -0.373603
 H         3.036207         2.574216        -0.776265
 H         3.485879         1.499349        -2.024684
 H         4.216825        -1.508030         0.521119
