19
Iteration:  2783charge 0 multiplicity 1
 C        -0.057229        -0.335477        -0.211258
 C         1.491379         0.125582         0.025722
 C         1.934368         0.562477         1.463376
 C         3.424646         0.453623         1.267858
 C         4.032074         0.626723        -0.121403
 C         3.166439         1.168162        -1.286100
 O         1.777353         1.226881        -0.815482
 C         3.603618        -0.754879         0.332002
 O         2.254342        -1.008386        -0.260652
 H        -0.378808        -1.236062         0.456393
 H        -0.662120         0.513964         0.124744
 H        -0.300731        -0.625045        -1.231015
 H         1.877346         1.726107         1.667842
 H         1.502942         0.041914         2.389924
 H         4.155674         0.667130         2.015628
 H         5.120341         0.751068        -0.212556
 H         3.395915         2.164145        -1.360405
 H         3.116588         0.539436        -2.208202
 H         4.328846        -1.556423         0.484706
