19
Iteration:  1893
 C         0.053864        -0.220814         0.153179
 C         1.528521         0.077196        -0.039157
 C         1.947116         0.766968         1.198506
 C         3.396887         0.374949         1.253101
 C         4.068459         0.543571        -0.236190
 C         3.102328         1.470261        -1.019091
 O         1.814464         0.944073        -1.087500
 C         3.496811        -0.781517         0.247989
 O         2.212040        -1.185312        -0.155031
 H        -0.098715        -1.027227         0.871961
 H        -0.474553         0.575283         0.626127
 H        -0.488652        -0.489493        -0.861483
 H         1.818679         1.888906         1.221403
 H         1.418678         0.444989         2.010700
 H         4.106734         0.694101         2.130173
 H         5.078802         0.956089        -0.032588
 H         3.187558         2.464335        -0.530718
 H         3.433776         1.693728        -2.076838
 H         4.271685        -1.497536         0.359337
