19
Iteration:   145charge 0 multiplicity 1
 C         0.068865        -0.247843         0.052800
 C         1.436065         0.084699         0.040507
 C         2.025281         0.793237         1.176549
 C         3.401002         0.305009         1.294939
 C         4.112368         0.578779        -0.076889
 C         3.057900         1.351182        -1.046064
 O         1.664464         0.973971        -1.087059
 C         3.593883        -0.775420         0.260111
 O         2.305549        -1.024114        -0.190999
 H        -0.246560        -0.902697         0.903649
 H        -0.522101         0.638429         0.052431
 H        -0.082792        -0.806781        -0.858846
 H         1.783369         1.790627         0.962854
 H         1.372507         0.472076         2.082959
 H         3.919772         0.248806         2.260391
 H         5.150075         0.873869        -0.350413
 H         3.053983         2.427870        -0.803434
 H         3.355167         1.282901        -2.098949
 H         4.159280        -1.675459         0.420013
