19
Iteration:  1363
 C        -0.057286        -0.246692        -0.141321
 C         1.486254         0.091953         0.084010
 C         1.948960         0.646496         1.448327
 C         3.446889         0.399210         1.277597
 C         3.981315         0.661815        -0.153113
 C         3.121031         1.158045        -1.268596
 O         1.706130         1.118030        -0.904482
 C         3.628400        -0.698546         0.289920
 O         2.337876        -1.033813        -0.242283
 H        -0.170660        -0.978717         0.691056
 H        -0.523440         0.675530         0.137431
 H        -0.282461        -0.649832        -1.127146
 H         1.631516         1.639590         1.617523
 H         1.648347         0.063566         2.423853
 H         4.266665         0.425525         2.027792
 H         5.063732         0.925006        -0.092024
 H         3.311558         2.184421        -1.512210
 H         3.349338         0.490037        -2.175384
 H         4.139450        -1.636361         0.463377
