19
Iteration:   373charge 0 multiplicity 1
 C         0.053251        -0.322894         0.101272
 C         1.440996         0.135745        -0.068510
 C         1.935305         0.759009         1.304483
 C         3.390799         0.425418         1.212821
 C         4.031752         0.507623        -0.154214
 C         3.156900         1.391709        -1.034333
 O         1.811044         0.980915        -1.146189
 C         3.522862        -0.756429         0.308578
 O         2.246194        -1.069522        -0.164684
 H         0.069530        -1.126541         0.869007
 H        -0.450911         0.568327         0.400990
 H        -0.354791        -0.582804        -0.841593
 H         1.529904         1.785546         1.357635
 H         1.421950         0.143794         2.023569
 H         4.070961         0.498675         2.068274
 H         5.082165         0.726090        -0.279225
 H         3.288660         2.426261        -0.607056
 H         3.522734         1.442334        -2.062462
 H         4.326192        -1.523691         0.542025
