19
Iteration:  4606
 C        -0.030428        -0.238876        -0.115525
 C         1.443144         0.118009        -0.011911
 C         1.976679         0.582980         1.439798
 C         3.447328         0.275231         1.334080
 C         4.019849         0.693538        -0.059354
 C         3.178161         1.354083        -1.141283
 O         1.704908         1.105205        -1.014153
 C         3.595585        -0.740967         0.209924
 O         2.279178        -1.065304        -0.237842
 H        -0.224995        -0.782509         0.826795
 H        -0.555298         0.695835        -0.008695
 H        -0.263043        -0.888367        -1.006889
 H         1.717329         1.541677         1.739947
 H         1.613413        -0.232876         2.163393
 H         4.199570         0.668551         2.072856
 H         5.004361         0.750844        -0.099929
 H         3.344549         2.427752        -1.123614
 H         3.465319         0.929901        -2.146316
 H         4.193176        -1.646556         0.290208
