19
Iteration:  2592
 C         0.008947        -0.295955        -0.090582
 C         1.434385         0.057424         0.010997
 C         1.966943         0.718537         1.422630
 C         3.450006         0.340088         1.293568
 C         4.010539         0.618280        -0.046422
 C         3.111016         1.214627        -1.212338
 O         1.711479         1.226762        -0.859606
 C         3.592131        -0.763427         0.300246
 O         2.310808        -1.029532        -0.339796
 H        -0.146787        -1.040582         0.709355
 H        -0.686866         0.548030        -0.082502
 H        -0.154757        -0.857194        -1.071470
 H         1.640766         1.734398         1.275383
 H         1.550294         0.252239         2.317525
 H         4.099817         0.227736         2.154938
 H         5.069451         0.697669        -0.339850
 H         3.557335         2.225252        -1.558316
 H         3.323883         0.600854        -2.196627
 H         4.306358        -1.581334         0.397941
