19
Iteration:  2675charge 0 multiplicity 1
 C        -0.024885        -0.212238        -0.094790
 C         1.454207         0.056924        -0.015567
 C         2.042131         0.799027         1.254056
 C         3.437351         0.222093         1.329420
 C         4.066130         0.561195        -0.187147
 C         3.078528         1.544373        -0.901557
 O         1.734474         0.947127        -1.123314
 C         3.549814        -0.759752         0.224164
 O         2.275503        -1.193916        -0.137170
 H        -0.319327        -0.616765         0.970881
 H        -0.484186         0.779051        -0.151694
 H        -0.251453        -0.937119        -0.831496
 H         1.923329         1.977563         1.239352
 H         1.549460         0.643445         2.282531
 H         4.127712         0.213036         2.164070
 H         5.084029         0.861228        -0.345655
 H         3.066393         2.657458        -0.370978
 H         3.361136         1.957235        -1.916271
 H         4.348550        -1.517550         0.363610
