19
Iteration:   854
 C         0.002714        -0.235652         0.035897
 C         1.503341         0.114611        -0.007212
 C         2.057891         0.791185         1.293439
 C         3.458890         0.399851         1.310241
 C         3.999594         0.598581        -0.162619
 C         3.112934         1.416823        -1.075227
 O         1.758452         0.889127        -1.081705
 C         3.553077        -0.784626         0.207304
 O         2.220111        -1.113447        -0.148338
 H        -0.206258        -0.736224         0.925686
 H        -0.686242         0.639258         0.067655
 H        -0.385883        -0.905459        -0.685526
 H         1.687711         1.963311         1.176068
 H         1.503337         0.326302         2.163040
 H         4.128999         0.445036         2.187482
 H         5.048791         0.645260        -0.307819
 H         3.127313         2.454099        -0.660850
 H         3.575531         1.472863        -2.072434
 H         4.096164        -1.705841         0.208350
