19
Iteration:  1389charge 0 multiplicity 1
 C         0.052380        -0.375908        -0.038171
 C         1.509297         0.217868         0.074005
 C         1.905886         0.589363         1.419815
 C         3.458349         0.449704         1.302581
 C         3.989388         0.646398        -0.198590
 C         3.193388         1.244242        -1.293163
 O         1.772060         1.163178        -0.974414
 C         3.533765        -0.717833         0.297626
 O         2.198763        -1.059073        -0.168518
 H         0.106136        -1.221832         0.607303
 H        -0.653317         0.399092         0.309598
 H        -0.060441        -0.702296        -1.109044
 H         1.509694         1.579413         1.854636
 H         1.507823        -0.231709         2.089508
 H         4.217998         0.612210         2.041090
 H         5.052493         0.709960        -0.149450
 H         3.410200         2.300187        -1.696535
 H         3.373535         0.546212        -2.076100
 H         4.096184        -1.663334         0.197370
