19
Iteration:  3507
 C        -0.001984        -0.339376        -0.126793
 C         1.442762         0.133550         0.042211
 C         1.981642         0.674099         1.372114
 C         3.411828         0.284540         1.258578
 C         4.038781         0.594535        -0.074671
 C         3.197202         1.477227        -1.097251
 O         1.770567         1.106525        -1.097044
 C         3.574265        -0.810228         0.213439
 O         2.197654        -1.046409        -0.074104
 H        -0.230429        -1.022221         0.672804
 H        -0.817577         0.437144        -0.129419
 H         0.059797        -0.998073        -1.078972
 H         1.749590         1.714574         1.533762
 H         1.451213        -0.000038         2.148102
 H         4.160027         0.422408         2.054564
 H         5.172704         0.847652        -0.144503
 H         3.140782         2.610027        -0.926349
 H         3.672802         1.201011        -2.122676
 H         4.218353        -1.715780         0.228647
