19
Iteration:  1307
 C         0.070397        -0.280028        -0.028702
 C         1.460479         0.185856         0.093583
 C         1.954148         0.637003         1.463341
 C         3.448946         0.364911         1.288490
 C         3.954044         0.632827        -0.194986
 C         3.179722         1.423136        -1.195565
 O         1.801029         0.958041        -1.134435
 C         3.552488        -0.696169         0.223950
 O         2.200930        -1.086351        -0.112098
 H        -0.026771        -0.906636         0.842841
 H        -0.781945         0.450571        -0.091837
 H         0.050540        -0.908024        -0.864735
 H         1.617955         1.630027         1.684798
 H         1.491968        -0.020688         2.272653
 H         4.070478         0.548844         2.160188
 H         5.001634         0.453780        -0.327192
 H         3.283543         2.409549        -0.813595
 H         3.560958         1.446096        -2.238406
 H         4.062592        -1.632882         0.063282
