19
Iteration:  2856charge 0 multiplicity 1
 C        -0.004258        -0.099317        -0.052070
 C         1.413244        -0.017544         0.019601
 C         1.977004         0.706702         1.281153
 C         3.459170         0.338609         1.245341
 C         4.098748         0.668584        -0.147761
 C         3.085216         1.503536        -0.889058
 O         1.808020         0.858203        -1.143276
 C         3.519967        -0.760925         0.200379
 O         2.271621        -1.208868        -0.170997
 H        -0.394177        -0.394763         0.967988
 H        -0.262009         0.958407        -0.152465
 H        -0.395885        -0.715535        -0.794230
 H         1.723401         1.714063         1.352793
 H         1.596963         0.362116         2.177939
 H         4.009194         0.432787         2.183834
 H         5.126819         1.010665        -0.274936
 H         2.847986         2.440806        -0.221817
 H         3.361608         1.840782        -1.884654
 H         4.331624        -1.508418         0.319736
