19
Iteration:  4730
 C         0.004702        -0.152271        -0.076131
 C         1.501957         0.064764         0.057331
 C         1.937710         0.530562         1.410529
 C         3.461379         0.361129         1.322475
 C         4.004459         0.652085        -0.108516
 C         3.130514         1.311502        -1.180476
 O         1.686448         1.150501        -0.976191
 C         3.598525        -0.773315         0.266145
 O         2.303165        -1.082618        -0.282686
 H        -0.231289        -0.917134         0.804162
 H        -0.692915         0.754119        -0.099458
 H        -0.037470        -0.574507        -1.115558
 H         1.381762         1.500889         1.745327
 H         1.507202        -0.200031         2.122388
 H         4.108124         0.508187         2.177011
 H         5.186097         0.834970        -0.100414
 H         3.352146         2.369123        -1.274465
 H         3.472382         0.962734        -2.219874
 H         4.254210        -1.627925         0.353340
