19
Iteration:  4658charge 0 multiplicity 1
 C        -0.080849        -0.193928        -0.113474
 C         1.425288         0.154823         0.020251
 C         2.050086         0.668905         1.305875
 C         3.549159         0.312358         1.294306
 C         3.987952         0.618373        -0.139314
 C         3.048200         1.544865        -0.930238
 O         1.763925         0.941541        -1.179004
 C         3.610198        -0.807436         0.249637
 O         2.253869        -1.188495        -0.089118
 H        -0.215857        -1.032376         0.409928
 H        -0.710663         0.610686         0.201721
 H        -0.149918        -0.253162        -1.233073
 H         1.798795         1.700934         1.383001
 H         1.536831         0.201285         2.137366
 H         4.277273         0.225024         2.142999
 H         5.017205         0.749709        -0.229271
 H         3.104931         2.505308        -0.418815
 H         3.403246         1.846132        -1.887366
 H         4.377511        -1.562153         0.084102
