19
Iteration:  2329
 C        -0.005116        -0.355595        -0.077226
 C         1.406095         0.215268         0.033601
 C         2.030716         0.703584         1.434251
 C         3.469746         0.420273         1.256532
 C         4.006170         0.580441        -0.190195
 C         3.167865         1.275392        -1.161178
 O         1.772880         1.104166        -1.012986
 C         3.511267        -0.776874         0.228818
 O         2.228833        -1.067303        -0.106887
 H         0.043277        -1.350827         0.486115
 H        -0.898561         0.263847         0.251484
 H        -0.004685        -0.414612        -1.174070
 H         1.714927         1.757052         1.644414
 H         1.568587         0.062569         2.270313
 H         4.254931         0.442721         2.102100
 H         5.084391         0.816125        -0.329596
 H         3.257141         2.374904        -1.148582
 H         3.509692         0.940988        -2.218649
 H         4.204106        -1.600610         0.289520
