19
Iteration:  4057charge 0 multiplicity 1
 C         0.000441        -0.175439        -0.090472
 C         1.486057         0.106816        -0.003693
 C         1.998362         0.638320         1.355524
 C         3.509895         0.307385         1.259889
 C         4.001914         0.666212        -0.158301
 C         3.071629         1.566791        -0.905166
 O         1.913500         0.807308        -1.223122
 C         3.489424        -0.732040         0.272173
 O         2.190055        -1.100323        -0.131774
 H        -0.198281        -0.599858         0.881025
 H        -0.587741         0.772102        -0.210258
 H        -0.518450        -0.852256        -0.911001
 H         1.607654         1.666169         1.634727
 H         1.514810        -0.064561         2.036368
 H         4.069168         0.331370         2.187707
 H         5.012106         0.719083        -0.283473
 H         2.931362         2.495836        -0.255969
 H         3.426401         1.874795        -1.925867
 H         4.206041        -1.574457         0.303414
