19
Iteration:   739
 C        -0.041040        -0.309348        -0.017356
 C         1.494759         0.140177        -0.012154
 C         1.965371         0.689072         1.433610
 C         3.458371         0.350946         1.332713
 C         4.070528         0.708151        -0.130447
 C         3.173967         1.133564        -1.314180
 O         1.738421         1.113065        -0.982828
 C         3.571060        -0.718508         0.296723
 O         2.227724        -1.023264        -0.199307
 H        -0.036631        -1.233894         0.719970
 H        -0.612831         0.518852         0.444057
 H        -0.412581        -0.563932        -1.030575
 H         1.875508         1.772548         1.461015
 H         1.210712         0.343014         2.208989
 H         4.178138         0.413721         2.163438
 H         5.113071         0.985303        -0.093854
 H         3.175160         2.139464        -1.799362
 H         3.355194         0.472013        -2.107000
 H         4.186305        -1.579775         0.428394
