19
Iteration:  3345
 C        -0.008262        -0.215207        -0.115212
 C         1.421136         0.123071         0.039921
 C         1.946133         0.464945         1.525532
 C         3.401529         0.359570         1.367744
 C         3.985605         0.678404        -0.145728
 C         3.162266         1.241414        -1.271390
 O         1.762017         1.141026        -0.954603
 C         3.649589        -0.690304         0.258991
 O         2.267187        -1.018074        -0.281300
 H        -0.330672        -0.716187         0.754976
 H        -0.523108         0.763008        -0.230259
 H        -0.095191        -0.831919        -1.038599
 H         1.474067         1.379539         1.788816
 H         1.479659        -0.237698         2.216372
 H         4.073862         0.528218         2.195875
 H         5.224981         0.890033        -0.088275
 H         3.519799         2.270339        -1.379502
 H         3.510929         0.676219        -2.168720
 H         4.305671        -1.597209         0.352450
