19
Iteration:  2691
 C         0.020363        -0.294017        -0.006552
 C         1.474839         0.046216         0.030960
 C         1.997536         0.775820         1.312217
 C         3.443270         0.351938         1.259172
 C         3.995010         0.570787        -0.167834
 C         3.126539         1.482242        -0.991069
 O         1.775747         1.026847        -1.059831
 C         3.562088        -0.814898         0.299032
 O         2.238007        -1.118096        -0.252635
 H        -0.324762        -1.003549         0.670834
 H        -0.593721         0.629361         0.036581
 H        -0.186504        -0.663766        -1.075657
 H         1.896624         1.772603         1.021513
 H         1.347320         0.587875         2.144549
 H         4.048900         0.520648         2.169864
 H         5.094604         0.626008        -0.237085
 H         3.118687         2.396622        -0.374509
 H         3.571685         1.496435        -1.975286
 H         4.177827        -1.699028         0.331195
