19
Iteration:  3546
 C        -0.058699        -0.211854        -0.201387
 C         1.460825         0.022454         0.047242
 C         1.919092         0.569931         1.433642
 C         3.414196         0.442305         1.235508
 C         4.054225         0.642945        -0.128613
 C         3.135738         1.216450        -1.203608
 O         1.740497         1.186692        -0.825667
 C         3.614912        -0.774370         0.323589
 O         2.353301        -1.051006        -0.266057
 H        -0.663477        -0.793957         0.517352
 H        -0.457090         0.780964        -0.395751
 H        -0.146225        -0.734404        -1.116859
 H         1.529745         1.614650         1.512799
 H         1.746119        -0.022264         2.294603
 H         3.935609         0.679397         2.181262
 H         5.016315         0.968024        -0.016003
 H         3.589339         2.231828        -1.462267
 H         3.152715         0.621565        -2.089397
 H         4.122620        -1.779740         0.517705
