19
Iteration:  4087
 C        -0.000559        -0.242383        -0.112019
 C         1.460813         0.054414         0.052535
 C         2.020247         0.753272         1.236885
 C         3.449389         0.305175         1.242033
 C         4.055621         0.604599        -0.098534
 C         3.118871         1.521211        -0.938019
 O         1.756323         1.023028        -1.107156
 C         3.544401        -0.791686         0.251524
 O         2.229551        -1.199233        -0.139835
 H        -0.287365        -0.898800         0.634019
 H        -0.521486         0.712713        -0.016172
 H        -0.218001        -0.777888        -1.022988
 H         1.817056         1.779404         1.026143
 H         1.401935         0.453476         2.054722
 H         3.979379         0.341524         2.207668
 H         5.065624         0.854075        -0.123621
 H         3.257416         2.432996        -0.436867
 H         3.461680         1.684863        -1.945449
 H         4.289757        -1.601547         0.504968
