19
Iteration:   943charge 0 multiplicity 1
 C        -0.011404        -0.297639        -0.105535
 C         1.478045         0.119069         0.012821
 C         1.963167         0.706006         1.375475
 C         3.447297         0.429117         1.248022
 C         3.996139         0.607112        -0.159328
 C         3.116914         1.173392        -1.221042
 O         1.757923         1.186386        -0.857124
 C         3.563623        -0.753168         0.318597
 O         2.306281        -1.111364        -0.205315
 H        -0.142968        -1.104303         0.662207
 H        -0.486539         0.584688         0.218798
 H        -0.353142        -0.704414        -1.034971
 H         1.695879         1.876242         1.328455
 H         1.578013         0.180124         2.300536
 H         4.131893         0.757178         2.028626
 H         5.028009         0.883810        -0.459685
 H         3.420105         2.224039        -1.442754
 H         3.074552         0.613153        -2.124755
 H         4.188876        -1.687458         0.447365
