19
Iteration:  2421charge 0 multiplicity 1
 C         0.019804        -0.191932        -0.127358
 C         1.467956         0.158645         0.020211
 C         1.977425         0.635223         1.449150
 C         3.493305         0.348277         1.279650
 C         3.976905         0.641092        -0.125905
 C         3.090022         1.333562        -1.172726
 O         1.705490         1.065169        -1.035091
 C         3.613767        -0.778760         0.268521
 O         2.274265        -1.133355        -0.124618
 H        -0.446420        -0.233908         0.788767
 H        -0.543102         0.421931        -0.776055
 H         0.014299        -1.168975        -0.658279
 H         1.869186         1.692324         1.733837
 H         1.641681         0.052456         2.312075
 H         4.069760         0.519636         2.143691
 H         5.045078         0.950086        -0.142968
 H         3.275153         2.439953        -1.236872
 H         3.309844         0.964231        -2.286784
 H         4.222009        -1.674516         0.130297
