19
Iteration:  2731
 C        -0.041499        -0.273352        -0.096448
 C         1.464685         0.110162         0.097482
 C         1.870984         0.503668         1.482475
 C         3.433964         0.392138         1.333175
 C         3.987678         0.687629        -0.105777
 C         3.220655         1.255141        -1.310417
 O         1.817289         1.154517        -1.055450
 C         3.566580        -0.732809         0.267817
 O         2.270184        -1.035393        -0.151239
 H        -0.312150        -1.303965         0.195489
 H        -0.651413         0.475779         0.422753
 H        -0.319860        -0.047981        -1.165702
 H         1.762651         1.602249         1.707553
 H         1.670230        -0.281205         2.264665
 H         4.175641         0.471530         2.095949
 H         5.054579         0.975311        -0.149984
 H         3.388198         2.375762        -1.487114
 H         3.338852         0.691977        -2.296461
 H         4.263128        -1.544182         0.251544
