19
Iteration:   784
 C        -0.008666        -0.187250        -0.039649
 C         1.488829         0.015901         0.069371
 C         1.945862         0.689390         1.361837
 C         3.427363         0.443978         1.218679
 C         4.060550         0.560858        -0.244639
 C         3.126945         1.418646        -1.231886
 O         1.773729         0.996796        -1.003692
 C         3.547716        -0.784155         0.335833
 O         2.257154        -1.143585        -0.146681
 H        -0.445986        -0.873632         0.787440
 H        -0.423791         0.785036         0.098079
 H        -0.365408        -0.608182        -1.032098
 H         1.718794         1.772529         1.484963
 H         1.822987         0.239757         2.363349
 H         4.171873         0.660662         1.988590
 H         5.115518         0.881487        -0.004083
 H         3.372643         2.486208        -0.958382
 H         3.167913         1.298553        -2.292686
 H         4.114129        -1.565668         0.878083
