19
Iteration:  4504charge 0 multiplicity 1
 C        -0.016212        -0.159225        -0.103699
 C         1.455203         0.093339         0.104273
 C         1.982349         0.575000         1.436656
 C         3.453709         0.307815         1.331727
 C         3.953111         0.661189        -0.064878
 C         3.164661         1.445289        -1.109337
 O         1.743901         0.912237        -1.068508
 C         3.619982        -0.705803         0.197861
 O         2.270850        -1.086225        -0.247245
 H        -0.418239        -1.063544         0.294428
 H        -0.515552         0.757709         0.297446
 H        -0.213545        -0.203561        -1.185532
 H         1.788522         1.705531         1.518005
 H         1.398880         0.076779         2.215496
 H         4.107864         0.527804         2.119524
 H         5.156872         0.816436        -0.066276
 H         3.011021         2.544923        -1.131013
 H         3.516946         1.124747        -2.146835
 H         4.383574        -1.496134         0.173548
