19
Iteration:   982charge 0 multiplicity 1
 C        -0.058387        -0.262551        -0.033689
 C         1.434560         0.139010        -0.036787
 C         1.985744         0.614607         1.460936
 C         3.524446         0.397841         1.263808
 C         3.955308         0.696305        -0.158618
 C         3.189701         1.223957        -1.212921
 O         1.764214         1.072563        -1.003402
 C         3.594456        -0.724240         0.265139
 O         2.228607        -1.047920        -0.163775
 H        -0.195769        -0.833492         0.857122
 H        -0.925439         0.562626        -0.019536
 H        -0.279311        -0.882135        -0.954334
 H         1.764199         1.562206         1.767300
 H         1.571889        -0.051460         2.187096
 H         4.281562         0.656128         2.031847
 H         5.000152         0.778993        -0.294514
 H         3.401758         2.334367        -1.280565
 H         3.617121         0.682800        -2.194488
 H         4.173060        -1.591304         0.546751
