19
Iteration:  2285charge 0 multiplicity 1
 C         0.008142        -0.052729        -0.003695
 C         1.506411         0.060080         0.028675
 C         2.015416         0.753787         1.249076
 C         3.446414         0.381993         1.248670
 C         3.944502         0.614993        -0.143650
 C         3.013799         1.466727        -0.974329
 O         1.773278         0.805859        -1.169736
 C         3.606704        -0.768145         0.247632
 O         2.270440        -1.224946        -0.114147
 H        -0.149076        -1.115097         0.347536
 H        -0.443967         0.662735         0.746357
 H        -0.459543         0.184936        -0.989271
 H         1.985105         1.882543         1.327205
 H         1.570898         0.336490         2.213062
 H         4.061467         0.433220         2.174192
 H         5.036382         0.752623        -0.267862
 H         3.112622         2.434023        -0.501820
 H         3.466521         1.685767        -2.013849
 H         4.427111        -1.425171         0.218277
