19
Iteration:   446charge 0 multiplicity 1
 C        -0.036026        -0.252107        -0.127982
 C         1.440508        -0.027692         0.064798
 C         2.016629         0.593359         1.451432
 C         3.499887         0.591317         1.160774
 C         3.963260         0.565324        -0.236199
 C         3.197243         1.446642        -1.184192
 O         1.809026         1.046889        -1.044245
 C         3.509335        -0.734480         0.367330
 O         2.192980        -1.179073        -0.060920
 H        -0.399730        -0.837643         0.737715
 H        -0.473209         0.774079        -0.232075
 H        -0.134611        -0.688444        -1.132689
 H         1.608140         1.541941         1.847578
 H         1.803400        -0.192981         2.097601
 H         4.080803         0.895578         2.026107
 H         4.997133         0.770047        -0.482036
 H         3.422269         2.458740        -0.873190
 H         3.556719         1.402799        -2.194431
 H         4.219484        -1.577065         0.486290
