19
Iteration:  4499charge 0 multiplicity 1
 C        -0.007906        -0.176276        -0.070683
 C         1.451604         0.078482         0.041084
 C         1.983599         0.618233         1.407621
 C         3.429608         0.326124         1.316503
 C         4.016475         0.688852        -0.079610
 C         3.172138         1.455559        -1.068029
 O         1.740092         0.910039        -1.066619
 C         3.607401        -0.714112         0.243102
 O         2.265206        -1.127733        -0.257351
 H        -0.476735        -1.095405         0.401644
 H        -0.516794         0.708734         0.281752
 H        -0.311591        -0.135496        -1.125699
 H         1.859275         1.680242         1.545665
 H         1.383693         0.169291         2.223434
 H         4.101914         0.332275         2.239244
 H         5.024806         0.829134        -0.162526
 H         3.100242         2.552875        -1.070886
 H         3.436098         1.268305        -2.090271
 H         4.287449        -1.531614         0.008034
