19
Iteration:  4899charge 0 multiplicity 1
 C        -0.011616        -0.275635        -0.127268
 C         1.471873         0.111761         0.045976
 C         2.058794         0.666291         1.377779
 C         3.510271         0.282542         1.296370
 C         4.018102         0.685301        -0.119299
 C         3.108226         1.564729        -0.980672
 O         1.800909         0.964508        -1.101304
 C         3.507189        -0.758948         0.125806
 O         2.189727        -1.134535        -0.122291
 H        -0.343937        -1.098698         0.603731
 H        -0.584524         0.618764         0.090451
 H        -0.352252        -0.528552        -1.104012
 H         1.961244         1.691580         1.537373
 H         1.449427         0.160040         2.170688
 H         4.113938         0.149100         2.176307
 H         5.083476         0.597349        -0.446365
 H         3.055077         2.537257        -0.621256
 H         3.436949         1.520370        -1.986901
 H         4.183511        -1.615714         0.278279
