19
Iteration:  2845charge 0 multiplicity 1
 C        -0.121061        -0.150863        -0.022046
 C         1.478280         0.057910         0.016974
 C         1.979792         0.721069         1.314168
 C         3.460657         0.389863         1.236677
 C         4.027852         0.598559        -0.130457
 C         3.096379         1.513792        -0.940367
 O         1.792716         0.858641        -1.058723
 C         3.627680        -0.757433         0.233922
 O         2.301589        -1.180042        -0.257253
 H        -0.634091        -0.463662         0.928420
 H        -0.468885         0.836129        -0.372539
 H        -0.355399        -0.746655        -0.855056
 H         1.834264         1.724374         1.112855
 H         1.502742         0.358975         2.150990
 H         4.051189         0.299955         2.154991
 H         5.111295         0.613208        -0.196282
 H         2.918234         2.562708        -0.377935
 H         3.519140         1.773687        -1.904987
 H         4.228446        -1.678589         0.449638
