19
Iteration:   113
 C        -0.012236        -0.305965        -0.002408
 C         1.456773         0.129001         0.078341
 C         1.951995         0.661462         1.473175
 C         3.470467         0.450110         1.258604
 C         4.015134         0.635166        -0.216367
 C         3.242088         1.458270        -1.264251
 O         1.819651         1.026161        -1.083436
 C         3.456197        -0.705941         0.285038
 O         2.218489        -1.179761        -0.136314
 H        -0.260515        -1.033238         0.901045
 H        -0.796857         0.467753        -0.166017
 H        -0.123786        -0.877062        -0.964316
 H         1.585549         1.599101         1.538521
 H         1.791956        -0.128849         2.294605
 H         4.004289         0.414291         2.248325
 H         5.130380         0.542706        -0.234016
 H         3.270922         2.590381        -1.130306
 H         3.514939         1.194178        -2.268547
 H         4.114116        -1.547399         0.496129
