19
Iteration:  1125charge 0 multiplicity 1
 C         0.084926        -0.206803        -0.060601
 C         1.462456         0.098669         0.042002
 C         1.930935         0.525340         1.472920
 C         3.463058         0.535883         1.281217
 C         3.969886         0.611656        -0.134657
 C         3.196563         1.272542        -1.264863
 O         1.752180         1.091476        -1.022638
 C         3.537720        -0.738016         0.200191
 O         2.239811        -1.114786        -0.118566
 H        -0.255999        -0.811625         0.864198
 H        -0.566502         0.750609         0.003199
 H        -0.196380        -0.724441        -0.986373
 H         1.519386         1.478854         1.617697
 H         1.488468        -0.127638         2.250066
 H         4.280952         0.779151         1.942420
 H         5.023229         0.867139        -0.102972
 H         3.185055         2.325181        -1.174076
 H         3.581273         0.964153        -2.311096
 H         4.127987        -1.692390         0.270285
