19
Iteration:   718charge 0 multiplicity 1
 C         0.007020        -0.288152        -0.036133
 C         1.447537         0.102314         0.123778
 C         1.955414         0.703638         1.382752
 C         3.375085         0.520818         1.193963
 C         3.989665         0.520745        -0.192521
 C         3.139393         1.138601        -1.263575
 O         1.770396         1.177163        -0.898608
 C         3.587160        -0.737797         0.337791
 O         2.336759        -1.064128        -0.242397
 H        -0.196912        -1.199973         0.648097
 H        -0.580073         0.569410         0.249608
 H        -0.079151        -0.421255        -1.115172
 H         1.408864         1.674199         1.525436
 H         1.500567         0.080235         2.229448
 H         4.007750         0.708764         2.065264
 H         5.071347         0.626175        -0.240106
 H         3.487250         2.184273        -1.436531
 H         3.274312         0.680256        -2.212163
 H         4.184612        -1.599766         0.538979
