19
Iteration:  4870charge 0 multiplicity 1
 C        -0.012071        -0.114438        -0.095734
 C         1.474345         0.066113        -0.006050
 C         1.972767         0.648947         1.342262
 C         3.472526         0.416584         1.247299
 C         4.020751         0.578675        -0.212315
 C         3.041141         1.534571        -0.874277
 O         1.823321         0.916872        -1.100404
 C         3.610457        -0.801853         0.194487
 O         2.265867        -1.230389        -0.183792
 H        -0.341346        -0.908222         0.656521
 H        -0.494838         0.752990         0.427697
 H        -0.618004        -0.155524        -0.953473
 H         1.646111         1.708620         1.564715
 H         1.304717         0.115267         2.091482
 H         4.169631         0.560078         2.081665
 H         5.212860         0.788799        -0.320596
 H         2.967696         2.486379        -0.134118
 H         3.302488         1.918129        -1.916354
 H         4.277337        -1.583635         0.437018
