19
Iteration:  1741charge 0 multiplicity 1
 C        -0.050153        -0.250323        -0.041652
 C         1.432062         0.085828         0.049028
 C         1.934672         0.713460         1.355218
 C         3.494460         0.536880         1.215977
 C         4.113576         0.568001        -0.176646
 C         3.115656         1.275630        -1.152085
 O         1.693488         1.083573        -0.961760
 C         3.597995        -0.793577         0.273203
 O         2.274098        -1.116358        -0.171484
 H         0.052307        -1.217509         0.424017
 H        -0.740032         0.419383         0.329873
 H        -0.268324        -0.394825        -1.129329
 H         1.640646         1.795484         1.538711
 H         1.663085         0.158399         2.277592
 H         4.195190         0.455140         2.010800
 H         5.157296         0.787636        -0.315035
 H         3.396098         2.310543        -1.037794
 H         3.354926         0.908677        -2.199298
 H         4.210377        -1.700008         0.504314
