19
Iteration:  2099charge 0 multiplicity 1
 C         0.003479        -0.331369        -0.050027
 C         1.484883         0.184871         0.009759
 C         2.122679         0.785034         1.345076
 C         3.573731         0.273620         1.334486
 C         3.881025         0.613749        -0.141652
 C         3.132115         1.511006        -1.081113
 O         1.750534         0.897596        -1.170897
 C         3.496650        -0.814063         0.215833
 O         2.166779        -1.084076         0.006106
 H         0.031193        -1.278533         0.379150
 H        -0.686483         0.393822         0.384559
 H        -0.433362        -0.324073        -1.089594
 H         1.987978         1.939890         1.387438
 H         1.504968         0.439277         2.203893
 H         4.416193         0.381947         1.970039
 H         4.932030         0.904880        -0.379067
 H         3.160156         2.645099        -1.056444
 H         3.544004         1.350321        -2.174302
 H         4.332086        -1.526132        -0.023699
