19
Iteration:  3299
 C        -0.012911        -0.229147        -0.123998
 C         1.458671         0.021362         0.048721
 C         1.945442         0.707069         1.416749
 C         3.446635         0.370276         1.285194
 C         4.018647         0.607126        -0.121158
 C         3.123651         1.484214        -1.047777
 O         1.794726         0.968259        -1.061192
 C         3.541028        -0.786177         0.198196
 O         2.271277        -1.101479        -0.181549
 H        -0.304989        -1.174027         0.484969
 H        -0.534767         0.637141         0.327944
 H        -0.236902        -0.408915        -1.154124
 H         1.811538         1.766121         1.400380
 H         1.395257         0.318679         2.317752
 H         4.237045         0.416886         2.037334
 H         5.148644         0.706183        -0.186294
 H         3.296864         2.417258        -0.661341
 H         3.428392         1.540486        -2.113769
 H         4.253714        -1.565276         0.105626
