19
Iteration:   371charge 0 multiplicity 1
 C         0.057741        -0.319577         0.094064
 C         1.453614         0.119985        -0.051830
 C         1.917585         0.737283         1.307320
 C         3.407362         0.444796         1.218805
 C         4.020077         0.486385        -0.155258
 C         3.169823         1.389867        -1.040487
 O         1.808352         0.993321        -1.157753
 C         3.526190        -0.748501         0.292048
 O         2.245760        -1.063953        -0.152310
 H         0.054772        -1.145578         0.879132
 H        -0.557986         0.584086         0.383894
 H        -0.381151        -0.572583        -0.887181
 H         1.514619         1.821883         1.377179
 H         1.469711         0.154147         2.047756
 H         4.094171         0.570467         2.045987
 H         5.086425         0.724811        -0.236625
 H         3.269948         2.430071        -0.562307
 H         3.485113         1.411721        -2.023412
 H         4.275790        -1.549543         0.498587
