19
Iteration:  1925charge 0 multiplicity 1
 C        -0.081416        -0.196994        -0.009399
 C         1.469617         0.091453         0.037238
 C         2.058183         0.631062         1.394763
 C         3.535412         0.402755         1.321346
 C         4.011078         0.676488        -0.125871
 C         3.104453         1.283373        -1.166654
 O         1.745574         0.981610        -1.101493
 C         3.585326        -0.744191         0.272302
 O         2.221674        -1.059985        -0.184699
 H        -0.455361        -1.091295         0.494426
 H        -0.647171         0.644362         0.375885
 H        -0.409632        -0.347612        -1.122681
 H         1.815213         1.729090         1.525627
 H         1.663993         0.056438         2.187377
 H         4.306660         0.584760         2.127930
 H         5.061452         0.880234        -0.086423
 H         3.211686         2.398989        -1.165769
 H         3.347877         0.897440        -2.128255
 H         4.243315        -1.601693         0.232216
