19
Iteration:  1362charge 0 multiplicity 1
 C        -0.067060        -0.251416        -0.144029
 C         1.484648         0.092469         0.077058
 C         1.950653         0.648973         1.445393
 C         3.459349         0.407212         1.282137
 C         3.986861         0.655818        -0.155847
 C         3.115742         1.167476        -1.253746
 O         1.703648         1.113884        -0.900791
 C         3.633556        -0.696735         0.292585
 O         2.341169        -1.040495        -0.246108
 H        -0.211041        -0.968045         0.696497
 H        -0.523787         0.715292         0.128980
 H        -0.305174        -0.634914        -1.120546
 H         1.621670         1.639617         1.610894
 H         1.609529         0.081970         2.388036
 H         4.266696         0.445078         2.044274
 H         5.061907         0.904079        -0.105506
 H         3.337205         2.171474        -1.530637
 H         3.323255         0.461114        -2.155877
 H         4.143361        -1.642285         0.420151
