19
Iteration:  2182
 C         0.038247        -0.277943        -0.147485
 C         1.471456         0.162073         0.138271
 C         2.016473         0.629917         1.467182
 C         3.461483         0.312215         1.264624
 C         4.031550         0.741224        -0.106788
 C         3.100304         1.057400        -1.282279
 O         1.738733         1.115022        -0.904863
 C         3.541616        -0.672713         0.188273
 O         2.212296        -0.936504        -0.188878
 H        -0.438690        -0.678909         0.829827
 H        -0.681059         0.484626        -0.519630
 H         0.220733        -1.176600        -0.940052
 H         1.736968         1.661892         1.704516
 H         1.718770         0.005869         2.338658
 H         4.147272         0.378269         2.185574
 H         5.096705         0.902749        -0.353155
 H         3.316898         2.081037        -1.647489
 H         3.332025         0.240041        -1.999108
 H         4.202346        -1.540829         0.192543
