19
Iteration:  1400
 C         0.002414        -0.337648        -0.082072
 C         1.391899         0.117522        -0.042497
 C         1.973489         0.643760         1.433878
 C         3.497736         0.452629         1.273457
 C         4.012022         0.592683        -0.121531
 C         3.191421         1.211004        -1.267060
 O         1.743215         1.180588        -0.950989
 C         3.539112        -0.711394         0.251038
 O         2.270431        -1.034971        -0.134886
 H         0.038000        -1.138900         0.626043
 H        -0.808145         0.274993         0.346331
 H        -0.440536        -0.815018        -0.975256
 H         1.486951         1.664075         1.691056
 H         1.722467        -0.131191         2.214025
 H         4.169121         0.522825         2.110566
 H         5.046137         0.678246        -0.352888
 H         3.400950         2.349176        -1.320821
 H         3.408597         0.783235        -2.218936
 H         4.266459        -1.502294         0.459282
