19
Iteration:  1230
 C        -0.106810        -0.204608        -0.024654
 C         1.389471         0.187634        -0.025122
 C         2.033683         0.583760         1.372117
 C         3.538337         0.391364         1.326993
 C         4.033438         0.643832        -0.184073
 C         3.164683         1.484389        -1.128319
 O         1.765535         0.890033        -1.166706
 C         3.590247        -0.671986         0.269585
 O         2.233425        -1.165253        -0.055935
 H        -0.276488        -1.088125         0.527567
 H        -0.814986         0.590445         0.347477
 H        -0.347728        -0.451160        -1.027277
 H         1.761812         1.618914         1.574051
 H         1.620410        -0.093118         2.127798
 H         4.154624         0.386084         2.219218
 H         5.091022         0.732382        -0.173200
 H         3.013898         2.593955        -0.909776
 H         3.658036         1.345311        -2.109804
 H         4.245991        -1.581950         0.252059
