19
Iteration:  1901
 C         0.055009        -0.183967         0.147375
 C         1.484324         0.105081        -0.058240
 C         1.940453         0.762864         1.241489
 C         3.369114         0.342973         1.263826
 C         4.041943         0.612844        -0.224263
 C         3.175324         1.459232        -1.087464
 O         1.756992         0.981566        -1.079194
 C         3.541355        -0.760404         0.274996
 O         2.278226        -1.241704        -0.140050
 H        -0.178806        -1.125641         0.778451
 H        -0.404827         0.673429         0.627343
 H        -0.490978        -0.385134        -0.819459
 H         1.728967         1.853539         1.110754
 H         1.394399         0.314951         2.107850
 H         4.101381         0.324788         2.052761
 H         5.092106         0.678980        -0.007445
 H         3.138998         2.526947        -0.702171
 H         3.263411         1.422505        -2.122493
 H         4.309739        -1.568254         0.330174
