19
Iteration:  1104
 C        -0.121654        -0.154769        -0.075507
 C         1.446398         0.036443         0.011094
 C         2.010158         0.681260         1.318586
 C         3.417410         0.426221         1.250584
 C         4.115338         0.586491        -0.192164
 C         3.081790         1.373327        -1.133520
 O         1.721530         1.004013        -0.987925
 C         3.617260        -0.752384         0.367909
 O         2.332859        -1.134040        -0.162250
 H        -0.550466        -0.908884         0.726706
 H        -0.666974         0.827150         0.203470
 H        -0.358173        -0.562313        -1.064503
 H         1.825771         1.700920         1.488148
 H         1.720864         0.130167         2.164293
 H         4.009025         0.279962         2.154135
 H         5.039592         1.046628        -0.582615
 H         3.255258         2.409079        -1.049799
 H         3.435683         0.958300        -2.169810
 H         4.425953        -1.537690         0.517334
