19
Iteration:  4835charge 0 multiplicity 1
 C        -0.075499        -0.253147        -0.065059
 C         1.426015         0.114671        -0.040669
 C         2.030581         0.612949         1.370187
 C         3.545055         0.277687         1.337949
 C         4.044381         0.704367        -0.010397
 C         3.101042         1.463254        -1.076106
 O         1.781639         1.000374        -1.066847
 C         3.615563        -0.768652         0.143955
 O         2.170868        -1.097985        -0.193481
 H        -0.276890        -1.150894         0.618395
 H        -0.528218         0.658484         0.299874
 H        -0.338310        -0.481393        -1.030361
 H         1.947923         1.663311         1.389490
 H         1.408078         0.063710         2.170923
 H         4.086311         0.416194         2.254364
 H         5.180589         1.020481        -0.160089
 H         3.061194         2.647247        -0.966690
 H         3.585283         1.245396        -2.049279
 H         4.192617        -1.712085         0.264170
