19
Iteration:  4832
 C        -0.095295        -0.278298        -0.046662
 C         1.444705         0.135971        -0.059509
 C         2.017373         0.612301         1.374055
 C         3.526473         0.274786         1.334762
 C         4.057741         0.711202        -0.016614
 C         3.134542         1.451405        -1.083766
 O         1.773852         1.018691        -1.051413
 C         3.612870        -0.763345         0.128547
 O         2.183079        -1.090377        -0.183386
 H        -0.205164        -1.117322         0.554168
 H        -0.632916         0.633050         0.199230
 H        -0.403785        -0.538575        -1.151550
 H         1.879532         1.697889         1.528327
 H         1.542071         0.127022         2.246462
 H         4.121540         0.386892         2.256923
 H         5.035589         0.949752        -0.182436
 H         3.062188         2.518143        -0.944190
 H         3.533225         1.117015        -2.021446
 H         4.181764        -1.730216         0.246188
