19
Iteration:   977charge 0 multiplicity 1
 C        -0.054328        -0.290151        -0.030628
 C         1.426802         0.155333        -0.023019
 C         1.966356         0.624736         1.508485
 C         3.478586         0.441955         1.234214
 C         4.038295         0.648955        -0.171134
 C         3.215547         1.244284        -1.255881
 O         1.763736         1.078589        -0.986238
 C         3.523528        -0.753968         0.286312
 O         2.254649        -1.047360        -0.204926
 H        -0.184615        -0.900173         0.916387
 H        -0.774753         0.456414         0.008845
 H        -0.372042        -0.871676        -0.915098
 H         1.608365         1.655660         1.961809
 H         1.645339        -0.155960         2.299619
 H         4.135856         0.750828         2.035248
 H         5.143791         0.879166        -0.284572
 H         3.593852         2.251213        -1.337495
 H         3.378855         0.790189        -2.217096
 H         4.198708        -1.577215         0.554064
