19
Iteration:  2483charge 0 multiplicity 1
 C         0.027166        -0.231194         0.015488
 C         1.440820         0.106863        -0.077220
 C         1.999587         0.647176         1.304049
 C         3.500465         0.349252         1.252330
 C         4.008781         0.621177        -0.147065
 C         3.115855         1.560060        -1.019107
 O         1.820413         0.965632        -1.245422
 C         3.514665        -0.824599         0.311225
 O         2.206605        -1.105419        -0.040237
 H        -0.052050        -1.129579         0.768985
 H        -0.525206         0.654502         0.382080
 H        -0.354099        -0.657178        -0.918804
 H         1.785951         1.697189         1.501311
 H         1.452428         0.022993         2.060904
 H         3.972709         0.449543         2.176070
 H         5.083357         0.713649        -0.274535
 H         3.072858         2.619903        -0.598537
 H         3.525318         1.488655        -1.944717
 H         4.125484        -1.744515         0.280348
