19
Iteration:   224charge 0 multiplicity 1
 C         0.006428        -0.227770        -0.149119
 C         1.429526         0.050230         0.071136
 C         2.036860         0.672633         1.377719
 C         3.508123         0.494003         1.228305
 C         3.927090         0.568228        -0.109761
 C         3.113436         1.325649        -1.143275
 O         1.714974         1.018639        -1.016187
 C         3.616624        -0.778450         0.274821
 O         2.260906        -1.092655        -0.114426
 H        -0.315339        -1.137374         0.471396
 H        -0.540748         0.783083         0.147895
 H        -0.028687        -0.343175        -1.312604
 H         1.696222         1.663672         1.378540
 H         1.504868         0.232983         2.315853
 H         4.221402         0.729217         2.009869
 H         4.967189         0.769857        -0.233154
 H         3.258857         2.441518        -0.912892
 H         3.463595         1.064483        -2.118501
 H         4.304710        -1.652971         0.296556
