19
Iteration:  4774charge 0 multiplicity 1
 C        -0.021575        -0.313713        -0.177909
 C         1.420308         0.141408         0.087351
 C         1.905565         0.502081         1.410102
 C         3.470583         0.383919         1.305067
 C         4.051183         0.619913        -0.166716
 C         3.115421         1.224760        -1.200887
 O         1.747831         1.294671        -0.804286
 C         3.643815        -0.725265         0.253014
 O         2.294226        -1.086380        -0.267820
 H        -0.739590        -0.823261         0.540646
 H        -0.559009         0.683477        -0.332326
 H        -0.049829        -0.727720        -1.230040
 H         1.766607         1.614899         1.675815
 H         1.606722        -0.081621         2.267380
 H         4.078804         0.482963         2.211904
 H         5.157564         0.865382        -0.261016
 H         3.343797         2.176366        -1.596572
 H         3.199858         0.636295        -2.154421
 H         4.305710        -1.522386         0.467187
