19
Iteration:   630charge 0 multiplicity 1
 C        -0.088764        -0.264298         0.106345
 C         1.429771         0.068223         0.010343
 C         1.933720         0.738164         1.285318
 C         3.456752         0.454153         1.219958
 C         4.096432         0.519861        -0.172146
 C         3.250159         1.452061        -1.039723
 O         1.712105         1.009315        -1.203468
 C         3.584163        -0.789250         0.284678
 O         2.283614        -1.166330        -0.152402
 H        -0.152735        -0.670179         1.149925
 H        -0.818739         0.539722         0.157293
 H        -0.585832        -0.959021        -0.520885
 H         1.651072         1.786147         1.150790
 H         1.419425         0.296762         2.249236
 H         4.051389         0.761825         2.084921
 H         5.128910         0.698395        -0.171679
 H         3.166423         2.436705        -0.542615
 H         3.696760         1.638220        -2.026493
 H         4.372755        -1.546266         0.360849
