19
Iteration:  3078charge 0 multiplicity 1
 C        -0.013720        -0.179161         0.014420
 C         1.481739        -0.020793        -0.048797
 C         1.974762         0.704132         1.254174
 C         3.460370         0.336564         1.306225
 C         4.031493         0.662037        -0.144078
 C         3.087655         1.555264        -0.963166
 O         1.817929         0.931366        -1.079426
 C         3.558714        -0.781169         0.303385
 O         2.258039        -1.189434        -0.241533
 H        -0.370941        -0.960319         0.689314
 H        -0.569319         0.776992         0.232410
 H        -0.331174        -0.362755        -1.085009
 H         1.804739         1.811984         1.050587
 H         1.569836         0.368119         2.179615
 H         3.967731         0.602056         2.199197
 H         5.056584         0.683949        -0.206145
 H         3.105973         2.544879        -0.374248
 H         3.320862         1.671774        -2.025401
 H         4.069135        -1.717611         0.350504
