19
Iteration:  3239charge 0 multiplicity 1
 C        -0.002236        -0.170672        -0.063231
 C         1.430430         0.039254         0.056941
 C         1.982433         0.650036         1.315276
 C         3.430558         0.383727         1.211505
 C         3.999458         0.626176        -0.140994
 C         3.101782         1.447579        -0.967660
 O         1.834406         0.960965        -1.023095
 C         3.584579        -0.725793         0.250031
 O         2.276862        -1.163896        -0.230196
 H        -0.260514        -0.934240         0.624906
 H        -0.564724         0.785641         0.046851
 H        -0.189593        -0.470862        -1.158047
 H         1.717169         1.808873         1.275957
 H         1.357330         0.182922         2.079099
 H         3.982510         0.435001         2.098295
 H         5.105880         0.691063        -0.179628
 H         3.133133         2.418457        -0.488272
 H         3.291641         1.583127        -2.026373
 H         4.133855        -1.639556         0.382371
