19
Iteration:   124
 C        -0.076439        -0.324755         0.004363
 C         1.420450         0.083833        -0.021516
 C         2.018257         0.746236         1.414495
 C         3.455752         0.446327         1.264748
 C         3.980328         0.612861        -0.127360
 C         3.234883         1.431478        -1.164659
 O         1.799461         1.034250        -1.077572
 C         3.516707        -0.772756         0.290123
 O         2.248542        -1.163379        -0.191296
 H        -0.133023        -0.903016         1.017643
 H        -0.791029         0.519342         0.124485
 H        -0.293996        -1.084038        -0.772134
 H         1.742466         1.727391         1.477838
 H         1.421188         0.290209         2.278404
 H         4.286945         0.570176         1.965558
 H         5.075662         0.682830        -0.286502
 H         3.322921         2.558815        -1.030765
 H         3.552585         1.206082        -2.168695
 H         4.253889        -1.556129         0.316540
