19
Iteration:  4680
 C         0.060857        -0.349459        -0.081844
 C         1.493280         0.142427        -0.031502
 C         2.051228         0.742487         1.403650
 C         3.464286         0.303381         1.292841
 C         4.034374         0.632339        -0.130418
 C         3.113618         1.537759        -0.949137
 O         1.779420         0.915859        -1.125231
 C         3.471786        -0.813155         0.180890
 O         2.163069        -1.062857        -0.158304
 H        -0.061383        -1.162822         0.472879
 H        -0.496667         0.448688         0.358981
 H        -0.227137        -0.436921        -1.171095
 H         2.039238         1.804339         1.318967
 H         1.509849         0.480887         2.312810
 H         4.069485         0.175339         2.232615
 H         5.037173         0.665373        -0.226012
 H         3.041657         2.587875        -0.555365
 H         3.416006         1.737841        -1.939923
 H         4.122084        -1.678241         0.061943
