19
Iteration:   962charge 0 multiplicity 1
 C         0.030458        -0.317153         0.009204
 C         1.456705         0.104253         0.140372
 C         1.909702         0.606730         1.400639
 C         3.383824         0.538003         1.211205
 C         4.086193         0.512319        -0.214959
 C         3.192518         1.228806        -1.305013
 O         1.760178         1.168126        -0.936865
 C         3.559827        -0.711563         0.357864
 O         2.258452        -1.026782        -0.259358
 H        -0.250337        -0.991313         0.766041
 H        -0.597381         0.633891         0.098643
 H        -0.026828        -0.743523        -0.964361
 H         1.448663         1.625079         1.546647
 H         1.651433        -0.068912         2.191966
 H         4.042455         0.313320         2.055519
 H         5.123703         0.636544        -0.042455
 H         3.162384         2.358854        -1.363074
 H         3.459237         0.756540        -2.268776
 H         4.064878        -1.682148         0.474570
