19
Iteration:  2460
 C         0.027705        -0.332822        -0.038906
 C         1.433217         0.104931         0.031377
 C         2.018234         0.880289         1.298624
 C         3.435365         0.376537         1.239215
 C         4.070133         0.530112        -0.214849
 C         3.151539         1.503045        -0.955589
 O         1.834703         0.959585        -1.075851
 C         3.451814        -0.783590         0.233651
 O         2.204214        -1.160494        -0.184085
 H        -0.130391        -0.827592         1.052429
 H        -0.727392         0.498969        -0.099714
 H        -0.077775        -1.188444        -0.678409
 H         1.752999         1.917567         1.090815
 H         1.441253         0.528378         2.186505
 H         4.010104         0.401454         2.180549
 H         5.133775         0.634534        -0.315302
 H         3.056473         2.356391        -0.220152
 H         3.494917         1.784688        -1.917812
 H         4.174278        -1.613589         0.296146
