19
Iteration:  4469
 C         0.009474        -0.327893         0.044440
 C         1.461610         0.106422        -0.068278
 C         1.958965         0.671515         1.213434
 C         3.408238         0.382508         1.251763
 C         4.010806         0.540962        -0.176551
 C         3.180914         1.603900        -0.883803
 O         1.788815         1.012793        -1.133852
 C         3.567011        -0.827433         0.274730
 O         2.220168        -1.136825        -0.185974
 H        -0.149585        -1.117584         0.850809
 H        -0.593623         0.487061         0.400508
 H        -0.341494        -0.590796        -0.915685
 H         1.913982         1.839979         1.217574
 H         1.429897         0.301723         2.045576
 H         4.024451         0.607744         2.116111
 H         5.195844         0.633723        -0.132852
 H         3.271274         2.541484        -0.212149
 H         3.540365         1.801178        -1.916035
 H         4.204898        -1.700984         0.330527
