19
Iteration:   461
 C        -0.014777        -0.264878        -0.158275
 C         1.467860         0.056973         0.068006
 C         1.910103         0.601407         1.399052
 C         3.456103         0.507570         1.219293
 C         4.013131         0.579648        -0.229596
 C         3.164442         1.313698        -1.186361
 O         1.780175         1.137361        -0.977508
 C         3.580662        -0.710803         0.220481
 O         2.272476        -1.132028         0.000417
 H        -0.382251        -0.753456         0.804944
 H        -0.636966         0.625711        -0.208668
 H        -0.345107        -0.911483        -0.996054
 H         1.430958         1.598330         1.482745
 H         1.717928         0.042551         2.287069
 H         4.211869         0.514563         2.016411
 H         5.097883         0.533822        -0.242002
 H         3.304145         2.406098        -1.085166
 H         3.376939         1.053563        -2.183440
 H         4.259716        -1.568791         0.318695
