19
Iteration:  2909charge 0 multiplicity 1
 C         0.012389        -0.258493        -0.147296
 C         1.434029         0.070071         0.007353
 C         1.972838         0.658832         1.359582
 C         3.504554         0.414699         1.255873
 C         4.043673         0.593327        -0.115627
 C         3.133031         1.382688        -1.063234
 O         1.763254         1.004885        -0.978310
 C         3.563518        -0.758314         0.219601
 O         2.205492        -1.068830        -0.160457
 H        -0.286898        -1.171187         0.355972
 H        -0.555264         0.572751         0.259450
 H        -0.276541        -0.351924        -1.165876
 H         1.734774         1.674812         1.443141
 H         1.579593         0.278395         2.322194
 H         4.156057         0.250807         2.114525
 H         5.066127         0.915535        -0.295564
 H         3.206297         2.446912        -0.863529
 H         3.440520         1.353893        -2.073162
 H         4.271494        -1.558132         0.475313
