19
Iteration:   126
 C        -0.072725        -0.331449         0.007064
 C         1.437024         0.085275        -0.036207
 C         2.005347         0.748947         1.387467
 C         3.468823         0.436256         1.261401
 C         3.981240         0.614249        -0.125514
 C         3.217848         1.406033        -1.137586
 O         1.787985         1.032512        -1.072958
 C         3.537436        -0.777273         0.287446
 O         2.243130        -1.148290        -0.194273
 H        -0.141581        -0.886301         1.056867
 H        -0.779282         0.583339         0.156483
 H        -0.335973        -1.108255        -0.796339
 H         1.793897         1.807146         1.486122
 H         1.430746         0.382632         2.253468
 H         4.246844         0.585063         1.965562
 H         5.039021         0.735081        -0.234516
 H         3.337696         2.540029        -0.977783
 H         3.568549         1.206240        -2.120046
 H         4.247227        -1.554451         0.298725
