19
Iteration:  3518
 C         0.067771        -0.333188        -0.152626
 C         1.473089         0.182169         0.001681
 C         1.965070         0.623976         1.416117
 C         3.454089         0.338203         1.335751
 C         4.004285         0.635613        -0.147957
 C         3.196725         1.374381        -1.127098
 O         1.743434         1.092650        -1.006749
 C         3.503326        -0.735985         0.237374
 O         2.209819        -1.081496        -0.137825
 H        -0.251401        -0.958359         0.653352
 H        -0.629809         0.516839        -0.416102
 H         0.061764        -0.913997        -1.166548
 H         1.768823         1.651536         1.685215
 H         1.546600         0.004563         2.313578
 H         3.974758         0.430234         2.313813
 H         5.166442         0.810313        -0.125458
 H         3.579998         2.434943        -1.075971
 H         3.269970         1.116387        -2.239282
 H         4.091069        -1.662492         0.162118
