19
Iteration:  4937charge 0 multiplicity 1
 C        -0.027820        -0.330732        -0.083350
 C         1.429901         0.077663         0.012560
 C         1.969733         0.619886         1.358662
 C         3.509827         0.332986         1.279557
 C         4.075686         0.547338        -0.113272
 C         3.124953         1.358905        -1.124082
 O         1.701253         1.206655        -0.908532
 C         3.565022        -0.728042         0.292786
 O         2.278409        -1.032545        -0.321179
 H        -0.252389        -0.848703         0.801329
 H        -0.642455         0.604598         0.032243
 H        -0.224958        -0.914624        -1.075017
 H         1.524833         1.712118         1.598809
 H         1.637775        -0.053997         2.165925
 H         4.128145         0.268659         2.189535
 H         5.190265         0.716844        -0.185363
 H         3.396986         2.485454        -1.178460
 H         3.427143         0.936149        -2.140932
 H         4.176893        -1.594584         0.537611
