19
Iteration:   524
 C        -0.023087        -0.303843         0.068339
 C         1.437121         0.155729         0.018774
 C         1.919581         0.629279         1.342225
 C         3.403391         0.379802         1.211485
 C         4.063126         0.635308        -0.103443
 C         3.171899         1.240462        -1.323456
 O         1.779601         1.136399        -0.981320
 C         3.560422        -0.730936         0.333092
 O         2.295037        -1.045843        -0.194752
 H        -0.054221        -1.182410         0.813457
 H        -0.694957         0.490647         0.365830
 H        -0.220545        -0.822007        -0.864787
 H         1.585183         1.721652         1.420097
 H         1.456614         0.080433         2.091285
 H         3.922788         0.534800         2.178083
 H         5.098723         0.902941        -0.148981
 H         3.415720         2.288629        -1.413247
 H         3.479119         0.681566        -2.239301
 H         4.234777        -1.580891         0.595589
