19
Iteration:   360charge 0 multiplicity 1
 C        -0.013974        -0.272702        -0.014256
 C         1.492606         0.072053         0.047602
 C         1.909694         0.651388         1.344926
 C         3.492516         0.532718         1.274111
 C         4.005655         0.552134        -0.196148
 C         3.221838         1.399304        -1.108670
 O         1.770203         1.025487        -1.162661
 C         3.539875        -0.808230         0.275039
 O         2.225714        -1.085893        -0.097442
 H        -0.182647        -1.165071         0.690726
 H        -0.763026         0.458304         0.378676
 H        -0.268597        -0.760771        -0.975306
 H         1.623442         1.767769         1.436134
 H         1.598745         0.181737         2.199005
 H         4.137910         0.861710         2.082574
 H         5.104699         0.616505        -0.134699
 H         3.234386         2.456696        -0.664016
 H         3.613139         1.469925        -2.056531
 H         3.995344        -1.815397         0.274609
