19
Iteration:  4857
 C         0.018449        -0.095908        -0.014920
 C         1.509010         0.044675        -0.048298
 C         1.965305         0.666618         1.379152
 C         3.425285         0.323661         1.264853
 C         3.942040         0.616877        -0.146510
 C         3.084895         1.525298        -0.961908
 O         1.778529         0.912678        -1.097980
 C         3.531437        -0.767800         0.209368
 O         2.326233        -1.181785        -0.206415
 H        -0.327692        -1.076566         0.493502
 H        -0.320500         0.865914         0.353706
 H        -0.172073        -0.184039        -1.004426
 H         1.732390         1.696145         1.344876
 H         1.649600         0.099893         2.347812
 H         4.035915         0.309530         2.148065
 H         5.123439         0.740094        -0.441615
 H         2.876949         2.522855        -0.363187
 H         3.514989         1.751531        -1.953347
 H         4.299667        -1.566540         0.304223
