19
Iteration:  3144charge 0 multiplicity 1
 C        -0.008672        -0.375847        -0.198737
 C         1.449260         0.114745         0.041779
 C         1.940186         0.641018         1.436922
 C         3.422878         0.345457         1.263980
 C         4.082074         0.599253        -0.088439
 C         3.101920         1.243737        -1.183776
 O         1.754173         1.240355        -0.852733
 C         3.580750        -0.736363         0.245726
 O         2.275113        -1.035366        -0.237810
 H        -0.166609        -1.180608         0.544725
 H        -0.566951         0.569978         0.007518
 H        -0.101327        -0.589232        -1.297639
 H         1.668726         1.716410         1.592291
 H         1.525914        -0.026202         2.177592
 H         4.164275         0.559994         1.995572
 H         5.087098         0.818534        -0.150743
 H         3.345679         2.335612        -1.420346
 H         3.229909         0.646793        -2.127733
 H         4.328050        -1.481313         0.471410
