19
Iteration:   491charge 0 multiplicity 1
 C         0.021677        -0.317450        -0.078098
 C         1.487328         0.120463         0.066990
 C         2.054664         0.742600         1.450733
 C         3.477177         0.358566         1.291092
 C         3.963663         0.696422        -0.027102
 C         3.071709         1.162926        -1.217545
 O         1.687081         1.078913        -1.014865
 C         3.514947        -0.766256         0.324476
 O         2.310494        -1.006766        -0.318145
 H        -0.206516        -0.805105         0.932549
 H        -0.635280         0.543620        -0.265152
 H        -0.069431        -0.858326        -1.008559
 H         1.888504         1.861050         1.247264
 H         1.672436         0.408841         2.352117
 H         4.187582         0.368734         2.146046
 H         5.004945         0.875884        -0.119828
 H         3.294535         2.189803        -1.464768
 H         3.420946         0.611519        -2.117822
 H         4.189113        -1.686801         0.447072
