19
Iteration:  1099charge 0 multiplicity 1
 C        -0.088224        -0.162245        -0.072938
 C         1.436348         0.001920         0.023844
 C         2.038246         0.739793         1.307913
 C         3.448526         0.442639         1.267629
 C         4.147024         0.587608        -0.172855
 C         3.071324         1.327199        -1.075782
 O         1.697625         0.981670        -1.005150
 C         3.597570        -0.737565         0.315611
 O         2.322238        -1.151390        -0.186638
 H        -0.452479        -0.859331         0.604736
 H        -0.634990         0.784788         0.176688
 H        -0.402122        -0.407863        -1.105582
 H         1.832617         1.868385         1.318119
 H         1.606271         0.335884         2.361756
 H         3.992151         0.079988         2.157161
 H         5.033071         1.126473        -0.518429
 H         3.014461         2.485212        -0.971701
 H         3.446627         1.100883        -2.053107
 H         4.246651        -1.573938         0.524898
