19
Iteration:  1398charge 0 multiplicity 1
 C         0.014311        -0.335424        -0.084096
 C         1.401142         0.131009        -0.025763
 C         1.953258         0.646183         1.430058
 C         3.495422         0.449450         1.293851
 C         3.996677         0.591480        -0.132357
 C         3.199518         1.220303        -1.272260
 O         1.745251         1.182237        -0.952429
 C         3.536326        -0.706963         0.248996
 O         2.259415        -1.037703        -0.135548
 H         0.109311        -1.134409         0.664546
 H        -0.758759         0.218176         0.350573
 H        -0.412640        -0.822489        -0.987568
 H         1.472897         1.615496         1.711922
 H         1.753414        -0.217113         2.188181
 H         4.249183         0.549099         2.077252
 H         5.083263         0.655359        -0.321067
 H         3.362975         2.318245        -1.410474
 H         3.462925         0.710928        -2.233805
 H         4.246292        -1.518405         0.415738
