19
Iteration:   487
 C         0.041345        -0.305851        -0.084368
 C         1.479426         0.130803         0.107744
 C         2.054146         0.742166         1.390171
 C         3.447268         0.334958         1.301892
 C         3.979304         0.746535        -0.081619
 C         3.076156         1.177565        -1.213653
 O         1.710647         1.080138        -0.998465
 C         3.535857        -0.783902         0.355962
 O         2.284918        -1.045772        -0.304504
 H        -0.299591        -0.790753         0.794127
 H        -0.670947         0.520762        -0.295399
 H        -0.087312        -0.899948        -1.001642
 H         1.919730         1.818765         1.355604
 H         1.698818         0.339141         2.462956
 H         4.182993         0.421156         2.082487
 H         5.073041         0.899732        -0.087983
 H         3.194369         2.281185        -1.439593
 H         3.365834         0.653671        -2.255548
 H         4.135616        -1.671029         0.467182
