19
Iteration:  4556charge 0 multiplicity 1
 C        -0.021807        -0.360535        -0.155015
 C         1.459617         0.058125         0.003814
 C         1.905374         0.599333         1.442414
 C         3.390971         0.478083         1.218361
 C         3.995155         0.579406        -0.185487
 C         3.152373         1.217975        -1.178459
 O         1.830620         1.273576        -0.759280
 C         3.584774        -0.791912         0.307893
 O         2.294341        -1.010042        -0.308181
 H        -0.311810        -1.105846         0.682033
 H        -0.615614         0.550672        -0.027590
 H        -0.115137        -0.910140        -1.039847
 H         1.628894         1.727695         1.447467
 H         1.573907         0.012140         2.257211
 H         4.051203         0.431311         2.022951
 H         5.092139         1.069682        -0.211092
 H         3.440762         2.287634        -1.134041
 H         3.281085         0.692796        -2.150327
 H         4.185369        -1.701333         0.341336
