19
Iteration:  2872
 C        -0.014572        -0.094950        -0.033499
 C         1.514615         0.079279        -0.080824
 C         2.021648         0.606417         1.316655
 C         3.512277         0.333869         1.259574
 C         3.937710         0.689599        -0.123657
 C         3.040572         1.595654        -0.946425
 O         1.872215         0.840998        -1.188999
 C         3.586309        -0.764634         0.218672
 O         2.169536        -1.193816        -0.038269
 H        -0.254331        -0.687218         0.867474
 H        -0.507386         0.906518        -0.067849
 H        -0.275714        -0.662318        -1.012068
 H         1.793107         1.756004         1.316202
 H         1.447769        -0.121802         2.006902
 H         4.161396         0.259802         2.139464
 H         5.023784         0.727283        -0.252043
 H         2.739142         2.568839        -0.386494
 H         3.570450         1.788574        -1.920139
 H         4.259277        -1.618826         0.162811
