19
Iteration:   752
 C         0.024082        -0.257743         0.025350
 C         1.409257         0.178583         0.051524
 C         2.032755         0.703703         1.343466
 C         3.460914         0.358937         1.251757
 C         4.028402         0.724288        -0.001816
 C         3.146754         1.165552        -1.234855
 O         1.697032         1.077287        -1.097535
 C         3.592172        -0.722414         0.238166
 O         2.223416        -1.073889        -0.167027
 H        -0.181534        -1.183478         0.625301
 H        -0.666408         0.465946         0.323418
 H        -0.226583        -0.538160        -1.029363
 H         1.792556         1.848112         1.568074
 H         1.723544        -0.033470         2.202797
 H         4.077626         0.342280         2.147277
 H         5.125766         1.010617        -0.039200
 H         3.541259         2.126274        -1.563372
 H         3.370435         0.385886        -1.907849
 H         4.185004        -1.654242         0.367281
