19
Iteration:  1787
 C         0.050382        -0.301884         0.040227
 C         1.477690         0.210623         0.072714
 C         1.935100         0.632471         1.443726
 C         3.399295         0.391404         1.280881
 C         4.030392         0.642111        -0.089345
 C         3.147536         1.073006        -1.329833
 O         1.702274         1.185418        -0.938621
 C         3.571370        -0.707381         0.253119
 O         2.296695        -1.010938        -0.313284
 H        -0.166545        -1.001873         0.781405
 H        -0.590077         0.597191         0.047068
 H        -0.061866        -0.807506        -0.964238
 H         1.597796         1.655954         1.735723
 H         1.679368        -0.151820         2.251826
 H         4.015794         0.577620         2.234421
 H         5.057081         0.996009        -0.246476
 H         3.592127         1.980687        -1.741630
 H         3.087074         0.226696        -2.032441
 H         4.268470        -1.509820         0.452879
