19
Iteration:  4244
 C        -0.121856        -0.213748        -0.056577
 C         1.430478         0.066650        -0.038198
 C         1.977953         0.767719         1.251074
 C         3.502892         0.329966         1.302528
 C         4.055901         0.618122        -0.121291
 C         3.111022         1.468598        -0.859932
 O         1.766730         0.922719        -1.119776
 C         3.560989        -0.749535         0.197641
 O         2.322829        -1.157934        -0.178931
 H        -0.365907        -0.802601         0.959976
 H        -0.583339         0.782010        -0.341323
 H        -0.320557        -0.875146        -0.927460
 H         1.709012         1.877431         1.288515
 H         1.485893         0.271525         2.137905
 H         3.890584         0.463081         2.322344
 H         5.246739         0.716453        -0.322224
 H         3.167556         2.502880        -0.286697
 H         3.638963         1.558396        -1.877604
 H         4.297038        -1.567577         0.263264
