19
Iteration:  4392charge 0 multiplicity 1
 C         0.028733        -0.158891        -0.132890
 C         1.487569         0.057022         0.070639
 C         1.923746         0.449628         1.399022
 C         3.376924         0.480830         1.217107
 C         4.012970         0.663933        -0.159825
 C         3.144243         1.291556        -1.219462
 O         1.756999         1.115597        -0.872186
 C         3.554623        -0.729968         0.343146
 O         2.308375        -1.102010        -0.252728
 H        -0.443810        -0.686348         0.748791
 H        -0.395383         0.813970        -0.191002
 H        -0.073182        -0.728787        -1.040747
 H         1.299025         1.372379         1.650019
 H         1.772310        -0.350340         2.109005
 H         4.110966         0.732282         2.057085
 H         5.134832         0.946506        -0.007759
 H         3.353685         2.379462        -1.150234
 H         3.443960         0.914201        -2.218052
 H         4.211279        -1.631859         0.377770
