19
Iteration:   597charge 0 multiplicity 1
 C         0.021576        -0.241861        -0.025849
 C         1.492047         0.120985         0.043553
 C         2.056990         0.770603         1.325507
 C         3.523047         0.387735         1.291631
 C         4.010972         0.610194        -0.124527
 C         3.104690         1.488278        -1.084834
 O         1.739913         0.853076        -1.149974
 C         3.477040        -0.698015         0.261142
 O         2.197320        -1.166127        -0.106835
 H        -0.122663        -1.125421         0.620968
 H        -0.648170         0.612563         0.217076
 H        -0.043727        -0.681901        -1.012050
 H         1.830770         1.861795         1.242694
 H         1.490496         0.469345         2.324583
 H         4.153107         0.365095         2.179212
 H         5.007442         0.501005        -0.455813
 H         3.050162         2.546782        -0.757908
 H         3.652747         1.385510        -2.053324
 H         4.200105        -1.561973         0.110591
