19
Iteration:  4793
 C         0.070813        -0.267478        -0.181378
 C         1.543997         0.088647        -0.038799
 C         1.948189         0.612229         1.438511
 C         3.407689         0.409764         1.225814
 C         3.975248         0.575174        -0.153327
 C         3.112214         1.276052        -1.168231
 O         1.731450         1.239760        -0.776817
 C         3.538030        -0.821466         0.330283
 O         2.295669        -1.042989        -0.281877
 H        -0.224432        -0.999228         0.744567
 H        -0.770963         0.424363        -0.041030
 H        -0.053664        -0.875176        -1.000253
 H         1.473097         1.592772         1.497186
 H         1.768215        -0.155816         2.247043
 H         4.133088         0.600734         1.982178
 H         5.171547         0.825494        -0.291328
 H         3.515872         2.324084        -1.247624
 H         3.171904         1.066825        -2.281042
 H         4.033423        -1.791279         0.446994
