19
Iteration:   334charge 0 multiplicity 1
 C         0.011079        -0.185699        -0.230204
 C         1.492215         0.084836         0.066495
 C         2.002219         0.724248         1.371595
 C         3.493518         0.382038         1.271200
 C         4.014591         0.684563        -0.218256
 C         3.068976         1.312307        -1.124749
 O         1.744931         0.957654        -0.952022
 C         3.523877        -0.687715         0.234966
 O         2.256334        -1.150001        -0.029027
 H        -0.417210        -0.962855         0.391592
 H        -0.650586         0.740806        -0.025408
 H        -0.023295        -0.702678        -1.262139
 H         1.890344         1.781645         1.539815
 H         1.599220         0.144826         2.329413
 H         4.222414         0.189220         2.072604
 H         5.092174         0.836183        -0.236326
 H         3.163344         2.407134        -1.237830
 H         3.478514         1.039290        -2.200229
 H         4.150890        -1.547004         0.427730
