19
Iteration:  4947
 C        -0.057239        -0.284483        -0.057751
 C         1.428292         0.055199        -0.063212
 C         1.944784         0.553622         1.393223
 C         3.480781         0.428093         1.307645
 C         4.119757         0.620082        -0.157206
 C         3.180727         1.260548        -1.146441
 O         1.716691         1.250065        -0.852929
 C         3.552013        -0.750806         0.311797
 O         2.295958        -1.041338        -0.326509
 H        -0.254310        -0.934773         0.762293
 H        -0.765086         0.584029        -0.176481
 H        -0.421167        -0.944752        -0.934819
 H         1.411028         1.593496         1.631711
 H         1.634548        -0.150145         2.230769
 H         4.123147         0.240244         2.190141
 H         5.301726         0.783574        -0.299831
 H         3.344710         2.370132        -1.167031
 H         3.243593         0.788077        -2.157714
 H         4.198820        -1.618119         0.283394
