19
Iteration:   219charge 0 multiplicity 1
 C        -0.009929        -0.198313        -0.161605
 C         1.450995         0.042339         0.065630
 C         2.016479         0.664806         1.438394
 C         3.501392         0.495798         1.230694
 C         3.925106         0.564869        -0.177582
 C         3.122924         1.375127        -1.140752
 O         1.767205         1.012635        -1.023586
 C         3.604502        -0.770945         0.304262
 O         2.258073        -1.137525        -0.108941
 H        -0.360111        -1.040242         0.368855
 H        -0.668634         0.527441         0.154138
 H        -0.215935        -0.438020        -1.153668
 H         1.705356         1.774918         1.455798
 H         1.539654         0.201449         2.276489
 H         4.263132         0.662085         1.994647
 H         5.000844         0.816994        -0.303581
 H         3.129640         2.437315        -1.021279
 H         3.423351         1.207137        -2.235390
 H         4.247845        -1.614332         0.427537
