19
Iteration:  1351
 C        -0.097902        -0.240191        -0.096136
 C         1.424267         0.055597        -0.001185
 C         1.977838         0.649893         1.390569
 C         3.548499         0.482608         1.311337
 C         4.071271         0.630908        -0.129081
 C         3.079752         1.213051        -1.156518
 O         1.689669         1.111093        -0.881169
 C         3.633618        -0.740565         0.299943
 O         2.348392        -1.091948        -0.255590
 H        -0.703236        -0.870319         0.573880
 H        -0.610043         0.742335        -0.106677
 H        -0.357926        -0.562273        -1.087726
 H         1.710714         1.671201         1.374162
 H         1.398440         0.041703         2.152470
 H         4.097566         0.704945         2.249358
 H         5.119484         0.825780        -0.422713
 H         3.330379         2.155246        -1.559839
 H         3.144883         0.466091        -2.038589
 H         4.423642        -1.468004         0.182754
