19
Iteration:  3339
 C        -0.024447        -0.190572        -0.128812
 C         1.482254         0.109856        -0.011072
 C         1.930772         0.453536         1.499668
 C         3.434148         0.383419         1.317245
 C         4.000803         0.676985        -0.109128
 C         3.195919         1.242250        -1.243828
 O         1.717525         1.155342        -0.958414
 C         3.639367        -0.718715         0.279359
 O         2.289934        -1.048696        -0.236995
 H        -0.439153        -0.702694         0.781145
 H        -0.477828         0.801180        -0.119368
 H        -0.281081        -0.765609        -1.030084
 H         1.500618         1.487625         1.761599
 H         1.643218        -0.363870         2.200126
 H         3.961183         0.559751         2.278617
 H         4.989279         0.882565        -0.224893
 H         3.217123         2.394535        -1.329302
 H         3.465742         0.797090        -2.212970
 H         4.204701        -1.646240         0.327856
