19
Iteration:  1570
 C        -0.034620        -0.283583        -0.100388
 C         1.434067         0.146089         0.038380
 C         1.888681         0.506201         1.410055
 C         3.477924         0.571956         1.209924
 C         3.983592         0.622587        -0.176776
 C         3.085008         1.135121        -1.336783
 O         1.798685         1.265341        -0.866888
 C         3.619444        -0.734585         0.320079
 O         2.354521        -1.114599        -0.166405
 H        -0.274116        -1.074276         0.647970
 H        -0.506308         0.594276         0.323722
 H        -0.523008        -0.602999        -1.104105
 H         1.625932         1.452101         1.701078
 H         1.620776        -0.168363         2.234274
 H         4.016652         0.556457         2.099660
 H         5.028042         0.767439        -0.057133
 H         3.473970         2.169083        -1.557867
 H         3.179000         0.510659        -2.232565
 H         4.268825        -1.543727         0.651607
