19
Iteration:  4396charge 0 multiplicity 1
 C         0.043988        -0.142582        -0.135698
 C         1.497383         0.032833         0.040800
 C         1.951074         0.463323         1.419568
 C         3.363072         0.473847         1.246443
 C         4.000371         0.654195        -0.199192
 C         3.155981         1.316291        -1.196770
 O         1.746597         1.110662        -0.873952
 C         3.541152        -0.736239         0.316194
 O         2.328750        -1.119756        -0.229264
 H        -0.515310        -0.580318         0.706625
 H        -0.495632         0.834518        -0.211089
 H        -0.049213        -0.717817        -1.059674
 H         1.404079         1.404304         1.564162
 H         1.730873        -0.295067         2.184356
 H         3.984763         0.648832         2.053828
 H         5.085874         1.013900        -0.043388
 H         3.189295         2.382973        -1.114501
 H         3.457926         0.919209        -2.215598
 H         4.174187        -1.579113         0.440238
