19
Iteration:  4724
 C        -0.005511        -0.178429        -0.082492
 C         1.463351         0.039587         0.029515
 C         1.895073         0.548267         1.368434
 C         3.484127         0.367944         1.292158
 C         4.052739         0.598580        -0.108752
 C         3.147512         1.356091        -1.188463
 O         1.689404         1.164461        -0.973185
 C         3.591524        -0.783241         0.307384
 O         2.318750        -1.067174        -0.249128
 H        -0.199778        -0.789166         0.702462
 H        -0.610375         0.661634         0.155770
 H        -0.369540        -0.709943        -0.997099
 H         1.528570         1.529895         1.551197
 H         1.601149        -0.166250         2.151759
 H         4.180177         0.354479         2.165974
 H         5.025038         0.792759        -0.001669
 H         3.221196         2.497522        -1.135920
 H         3.455358         1.137056        -2.189650
 H         4.298476        -1.620229         0.285914
