19
Iteration:   249
 C        -0.017307        -0.302162        -0.058198
 C         1.424059         0.115445        -0.000705
 C         1.988916         0.744405         1.397145
 C         3.448974         0.335347         1.309556
 C         4.055200         0.644687        -0.094218
 C         3.108416         1.275867        -1.233167
 O         1.727222         1.071685        -0.982908
 C         3.591142        -0.714296         0.317878
 O         2.290941        -1.074814        -0.228058
 H        -0.055295        -1.030652         0.777964
 H        -0.735998         0.608614         0.081957
 H        -0.217482        -0.798394        -1.085052
 H         1.818382         1.873226         1.382981
 H         1.372161         0.398446         2.172069
 H         4.121005         0.108065         2.183880
 H         5.144759         0.840894        -0.276545
 H         3.226368         2.410823        -1.422387
 H         3.407245         0.656124        -2.101990
 H         4.240736        -1.578743         0.551415
