19
Iteration:  2881
 C         0.002433        -0.155949        -0.069078
 C         1.406675         0.157722        -0.004887
 C         2.041998         0.588831         1.324256
 C         3.541093         0.318293         1.316687
 C         3.925926         0.648906        -0.111110
 C         3.096361         1.621980        -1.010686
 O         1.876512         0.845180        -1.223173
 C         3.516936        -0.803051         0.189065
 O         2.215126        -1.177721        -0.047099
 H        -0.370213        -0.840818         0.794213
 H        -0.452132         0.839008         0.074492
 H        -0.223573        -0.588877        -1.094290
 H         1.792413         1.635606         1.794060
 H         1.518512         0.082838         2.180063
 H         4.127660         0.467702         2.217580
 H         5.003082         0.756436        -0.340843
 H         2.693880         2.671750        -0.566465
 H         3.536259         1.843269        -2.063158
 H         4.339747        -1.455629         0.258208
