19
Iteration:  3542charge 0 multiplicity 1
 C        -0.051192        -0.211483        -0.198420
 C         1.484868         0.008956         0.055951
 C         1.941893         0.592783         1.436059
 C         3.396969         0.442985         1.253314
 C         4.028500         0.638891        -0.118269
 C         3.119649         1.245812        -1.178479
 O         1.759731         1.176335        -0.850700
 C         3.601306        -0.798481         0.327377
 O         2.338154        -1.045956        -0.268708
 H        -0.592407        -0.818185         0.550613
 H        -0.530594         0.721453        -0.492409
 H        -0.079119        -0.751489        -1.172165
 H         1.462802         1.563768         1.567039
 H         1.717813         0.007600         2.348436
 H         4.071454         0.614908         2.076916
 H         5.146714         0.889388        -0.141232
 H         3.528363         2.289499        -1.537282
 H         3.161618         0.685244        -2.175797
 H         4.092178        -1.690150         0.510827
