19
Iteration:  1589charge 0 multiplicity 1
 C        -0.025394        -0.207317        -0.138518
 C         1.495257         0.016894         0.058686
 C         1.964060         0.638501         1.402794
 C         3.497935         0.386515         1.276207
 C         4.049168         0.704634        -0.182035
 C         3.080030         1.091672        -1.254264
 O         1.648991         1.211214        -0.851996
 C         3.628415        -0.709399         0.331705
 O         2.300357        -1.060906        -0.208666
 H        -0.432396        -1.120917         0.442120
 H        -0.563742         0.668332         0.145372
 H         0.135558        -0.497854        -1.227958
 H         1.518992         1.708666         1.524622
 H         1.506225         0.016620         2.208429
 H         4.120345         0.667387         2.106849
 H         5.144253         0.968830        -0.286986
 H         3.365481         2.039045        -1.779847
 H         3.257153         0.278790        -1.941551
 H         4.289069        -1.557456         0.399933
