19
Iteration:  1352
 C        -0.098983        -0.243132        -0.101090
 C         1.429592         0.062742         0.000679
 C         1.977744         0.653796         1.399651
 C         3.546603         0.479034         1.310294
 C         4.063161         0.627172        -0.135305
 C         3.079271         1.215021        -1.160614
 O         1.692557         1.106138        -0.880855
 C         3.636559        -0.734014         0.301412
 O         2.349909        -1.088513        -0.257608
 H        -0.687304        -0.879782         0.588963
 H        -0.582829         0.715924        -0.091881
 H        -0.384704        -0.556127        -1.100629
 H         1.690441         1.668258         1.401866
 H         1.355855         0.039774         2.161032
 H         4.115739         0.692359         2.243449
 H         5.133206         0.830724        -0.398817
 H         3.366902         2.140207        -1.581144
 H         3.123441         0.460270        -2.005228
 H         4.393710        -1.491795         0.173014
