19
Iteration:  2404
 C         0.040726        -0.182405        -0.073749
 C         1.504479         0.072901         0.108364
 C         1.931293         0.472901         1.482316
 C         3.415351         0.451820         1.276029
 C         3.954628         0.689474        -0.237072
 C         3.180572         1.252739        -1.307735
 O         1.790457         1.107723        -0.958263
 C         3.532150        -0.688427         0.271717
 O         2.264378        -1.071674        -0.154736
 H        -0.418297        -0.164466         0.990681
 H        -0.285286         0.673598        -0.759069
 H        -0.188558        -1.144224        -0.586910
 H         1.293274         1.336541         1.746010
 H         1.473971        -0.400829         1.980383
 H         4.208894         0.461556         2.108602
 H         5.049869         0.658110        -0.244982
 H         3.373771         2.334267        -1.451753
 H         3.476662         0.915422        -2.264219
 H         4.234521        -1.442518         0.601597
