19
Iteration:  1621
 C        -0.012154        -0.316774        -0.100357
 C         1.464783         0.073526         0.026582
 C         1.978421         0.732212         1.566682
 C         3.512272         0.389109         1.253313
 C         4.003960         0.664070        -0.208597
 C         3.168322         1.271114        -1.235694
 O         1.718969         1.093731        -1.007394
 C         3.558735        -0.733402         0.274528
 O         2.227047        -1.072858        -0.175067
 H        -0.302232        -1.112728         0.653634
 H        -0.675357         0.520069        -0.087747
 H        -0.181704        -0.878234        -1.063513
 H         1.780184         1.868854         1.735957
 H         1.610495         0.132372         2.426678
 H         4.193815         0.497472         2.064001
 H         5.083570         0.768867        -0.064679
 H         3.409603         2.356848        -1.286788
 H         3.490408         0.806323        -2.218247
 H         4.165354        -1.620817         0.389350
