19
Iteration:  2392charge 0 multiplicity 1
 C        -0.051703        -0.173166        -0.033702
 C         1.429185         0.006558         0.051862
 C         1.900463         0.425902         1.445879
 C         3.411258         0.542029         1.214797
 C         4.062985         0.643743        -0.147904
 C         3.191249         1.217083        -1.362317
 O         1.846383         1.136931        -0.890227
 C         3.558009        -0.648897         0.320079
 O         2.277588        -1.068271        -0.226595
 H        -0.624140        -0.199621         0.930502
 H        -0.578050         0.673991        -0.580208
 H        -0.272831        -1.155262        -0.591900
 H         1.476472         1.345654         1.896392
 H         1.947418        -0.320262         2.233180
 H         4.008721         0.705434         2.158075
 H         5.119169         0.981273        -0.141290
 H         3.426250         2.309125        -1.437677
 H         3.236139         0.614259        -2.234762
 H         4.070442        -1.580457         0.320194
