19
Iteration:   203
 C        -0.065663        -0.254829        -0.107997
 C         1.457761         0.126939         0.032608
 C         1.953592         0.674988         1.419634
 C         3.443994         0.388778         1.235986
 C         4.129047         0.657311        -0.308818
 C         3.156060         1.496529        -1.219867
 O         1.802034         0.927372        -1.019739
 C         3.483096        -0.700851         0.333689
 O         2.239244        -1.206001        -0.031751
 H        -0.159326        -1.161495         0.598156
 H        -0.508083         0.793826         0.254925
 H        -0.184382        -0.348825        -1.277591
 H         1.578149         1.610607         1.709336
 H         1.631075        -0.043149         2.262552
 H         4.047339         0.393414         2.144605
 H         5.191509         0.698500        -0.422409
 H         3.261341         2.560493        -0.769188
 H         3.351453         1.415437        -2.257154
 H         4.240573        -1.507862         0.505058
