19
Iteration:  1652
 C         0.044650        -0.266331         0.032537
 C         1.478848         0.067876        -0.082710
 C         1.954988         0.746034         1.295724
 C         3.462387         0.413338         1.167517
 C         3.999207         0.555545        -0.210275
 C         3.151561         1.442444        -1.025585
 O         1.762913         0.996782        -1.051037
 C         3.552493        -0.748459         0.295834
 O         2.244562        -1.147393        -0.104968
 H        -0.069571        -0.730030         1.040254
 H        -0.656484         0.533926        -0.105151
 H        -0.397501        -0.873378        -0.684637
 H         1.812010         1.891228         1.550452
 H         1.483656         0.161051         2.079306
 H         4.058237         0.571479         2.096223
 H         5.105839         0.674650        -0.270124
 H         3.156536         2.425130        -0.582561
 H         3.319101         1.484726        -2.157969
 H         4.146676        -1.633852         0.395204
