19
Iteration:  3959
 C         0.002431        -0.397080        -0.113662
 C         1.393458         0.111850        -0.014013
 C         1.909212         0.587960         1.418007
 C         3.413054         0.337635         1.318911
 C         4.133741         0.651802        -0.044595
 C         3.187999         1.186723        -1.282637
 O         1.768077         1.336125        -0.901590
 C         3.570534        -0.747377         0.285481
 O         2.259325        -1.008907        -0.247548
 H        -0.103043        -1.301378         0.414059
 H        -0.726243         0.376303         0.217557
 H        -0.289434        -0.362534        -1.259051
 H         1.601985         1.657303         1.696222
 H         1.445804        -0.002672         2.219227
 H         4.088242         0.406788         2.194884
 H         5.095239         0.873750        -0.031123
 H         3.437315         2.236199        -1.744428
 H         3.186289         0.341303        -1.988141
 H         4.307671        -1.597876         0.407294
