19
Iteration:  1680charge 0 multiplicity 1
 C        -0.043616        -0.143358         0.001254
 C         1.443700        -0.004297         0.058675
 C         2.123391         0.770745         1.275099
 C         3.518340         0.313984         1.271085
 C         3.983093         0.666297        -0.089259
 C         3.029489         1.486886        -1.003257
 O         1.801400         0.771671        -1.182227
 C         3.563956        -0.688490         0.237211
 O         2.240280        -1.108014        -0.133700
 H        -0.473547        -0.762069         0.778646
 H        -0.760349         0.791141        -0.084048
 H        -0.201920        -0.779005        -0.966650
 H         2.149351         1.853882         1.306384
 H         1.579425         0.476576         2.209298
 H         4.080194         0.262317         2.278886
 H         5.046495         0.745024        -0.365416
 H         2.834191         2.558992        -0.626565
 H         3.278771         1.605067        -2.024467
 H         4.190147        -1.578609         0.083535
