19
Iteration:  3002charge 0 multiplicity 1
 C         0.042920        -0.184006        -0.162013
 C         1.465957         0.075626         0.085496
 C         1.917459         0.556315         1.364313
 C         3.428983         0.405560         1.246145
 C         3.993515         0.648314        -0.172138
 C         3.099278         1.299362        -1.195101
 O         1.716648         1.122313        -0.845069
 C         3.654845        -0.782077         0.320641
 O         2.321121        -1.109643        -0.213301
 H        -0.421823        -0.624385         0.699974
 H        -0.243094         0.915721        -0.267157
 H        -0.216597        -0.733370        -1.143473
 H         1.489388         1.619237         1.358689
 H         1.445663         0.060520         2.200996
 H         3.927358         0.429406         2.202105
 H         5.045880         0.734423        -0.140301
 H         3.401490         2.379583        -1.285111
 H         3.200492         1.038160        -2.248757
 H         4.339541        -1.626043         0.263819
