19
Iteration:    64
 C        -0.038350        -0.210366        -0.101905
 C         1.448759        -0.048002         0.098045
 C         1.985456         0.750996         1.386510
 C         3.480565         0.369822         1.305401
 C         4.078158         0.688850        -0.151941
 C         3.103799         1.276929        -1.241069
 O         1.667808         1.087987        -0.932357
 C         3.600896        -0.679952         0.376319
 O         2.318025        -1.180258        -0.242288
 H        -0.530621        -0.866847         0.478591
 H        -0.500260         0.765594        -0.065134
 H        -0.154472        -0.391944        -1.144224
 H         1.821692         1.912925         0.981577
 H         1.504656         0.358697         2.261614
 H         4.103537         0.241842         2.143642
 H         5.130763         0.773019        -0.276109
 H         3.208691         2.313980        -1.383157
 H         3.315931         0.740790        -2.268925
 H         4.221590        -1.528373         0.565816
