19
Iteration:  2413charge 0 multiplicity 1
 C         0.071345        -0.180282        -0.104088
 C         1.508374         0.158903         0.019794
 C         1.926067         0.553050         1.502626
 C         3.426178         0.391735         1.271990
 C         3.963289         0.616506        -0.151440
 C         3.122872         1.343734        -1.258014
 O         1.730734         1.073138        -1.002218
 C         3.607730        -0.739168         0.267588
 O         2.253788        -1.120027        -0.127220
 H        -0.517945        -0.196210         0.816226
 H        -0.410228         0.627241        -0.729219
 H        -0.040889        -1.222750        -0.549987
 H         1.639582         1.596906         1.791475
 H         1.564183        -0.184290         2.210329
 H         4.219969         0.461551         2.070977
 H         5.024011         0.855947        -0.417611
 H         3.262639         2.484494        -1.310571
 H         3.419983         0.716358        -2.176951
 H         4.379335        -1.494663         0.335980
