19
Iteration:   307
 C        -0.063368        -0.239609        -0.145889
 C         1.460680         0.054835         0.068530
 C         1.987260         0.680440         1.436216
 C         3.479856         0.431214         1.280937
 C         3.971449         0.630200        -0.175843
 C         3.122307         1.286187        -1.215964
 O         1.723611         1.084192        -0.971392
 C         3.618310        -0.761288         0.355533
 O         2.282008        -1.121249        -0.193979
 H        -0.597975        -0.849091         0.646150
 H        -0.464197         0.726983        -0.198165
 H        -0.102249        -0.762203        -1.054880
 H         1.811657         1.794893         1.574321
 H         1.693569         0.131414         2.361057
 H         4.225777         0.745932         1.997023
 H         5.035972         0.839897        -0.087948
 H         3.393892         2.331604        -1.362527
 H         3.476014         0.873961        -2.274019
 H         4.321484        -1.600123         0.353861
