19
Iteration:  2370
 C        -0.087700        -0.226167        -0.083697
 C         1.444375         0.111960         0.064731
 C         1.910187         0.622429         1.364527
 C         3.501901         0.402107         1.246751
 C         4.023948         0.665346        -0.112809
 C         3.113493         1.064780        -1.234104
 O         1.728338         1.204762        -0.829507
 C         3.664515        -0.695009         0.277810
 O         2.377815        -1.068893        -0.302841
 H        -0.567842        -0.469545         0.901135
 H        -0.751896         0.662937        -0.316573
 H        -0.335958        -1.059448        -0.861587
 H         1.531195         1.659369         1.528464
 H         1.494239        -0.035674         2.146132
 H         4.146506         0.541980         2.131274
 H         5.083754         0.970998        -0.247853
 H         3.422835         2.100656        -1.509819
 H         3.085647         0.322845        -1.958586
 H         4.158473        -1.578845         0.575083
