19
Iteration:  4820charge 0 multiplicity 1
 C        -0.065045        -0.302287        -0.084159
 C         1.441163         0.128211         0.029720
 C         1.985750         0.642427         1.426120
 C         3.443974         0.300324         1.246060
 C         4.031496         0.658310        -0.098921
 C         3.235312         1.366914        -1.078378
 O         1.736116         1.102959        -1.009662
 C         3.535264        -0.717384         0.191382
 O         2.274494        -1.061864        -0.200798
 H        -0.185314        -1.065948         0.613882
 H        -0.877593         0.369948         0.216841
 H        -0.289340        -0.795550        -1.136951
 H         1.712334         1.712262         1.621123
 H         1.613013        -0.019133         2.213029
 H         4.131611         0.126400         2.092408
 H         5.023484         0.728503        -0.183660
 H         3.415705         2.409767        -1.062071
 H         3.524837         1.108572        -2.095286
 H         4.271585        -1.516957         0.054006
