19
Iteration:  1800
 C        -0.057478        -0.266858        -0.010945
 C         1.400612         0.084027         0.045874
 C         1.962588         0.556453         1.375833
 C         3.459603         0.487535         1.180789
 C         4.039743         0.638447        -0.214687
 C         3.185157         1.144321        -1.249051
 O         1.728075         1.190016        -0.890220
 C         3.592333        -0.763953         0.367160
 O         2.337242        -0.987360        -0.220904
 H        -0.391876        -0.791251         0.901637
 H        -0.723342         0.675444        -0.007408
 H        -0.286015        -0.866733        -0.892190
 H         1.555547         1.498965         1.705536
 H         1.555140        -0.244741         2.110639
 H         4.203799         0.703473         1.973094
 H         5.113655         0.853152        -0.106718
 H         3.320926         2.188816        -1.614789
 H         3.366352         0.536889        -2.115870
 H         4.059923        -1.718682         0.433325
