19
Iteration:  2159
 C        -0.012490        -0.174332        -0.039221
 C         1.495956         0.106215         0.039033
 C         1.919145         0.541758         1.458979
 C         3.420996         0.443489         1.262581
 C         3.967731         0.631199        -0.194161
 C         3.146611         1.156922        -1.367788
 O         1.743474         1.208625        -0.898395
 C         3.631430        -0.732285         0.334845
 O         2.314501        -1.100839        -0.222215
 H        -0.297022        -0.617427         1.001561
 H        -0.639171         0.758393        -0.072547
 H        -0.316082        -0.877899        -0.905411
 H         1.465963         1.468166         1.686429
 H         1.668590        -0.178000         2.237996
 H         4.113124         0.601366         2.182608
 H         5.021687         1.015320        -0.139328
 H         3.368671         2.182278        -1.730861
 H         3.306559         0.384311        -2.103851
 H         4.355361        -1.503415         0.389623
