19
Iteration:  1434
 C         0.037466        -0.178245        -0.065979
 C         1.500217         0.039866         0.045199
 C         2.001045         0.764194         1.385131
 C         3.477926         0.402738         1.273102
 C         3.964308         0.638835        -0.112918
 C         3.073630         1.376453        -1.139668
 O         1.703813         0.907415        -0.986265
 C         3.557902        -0.777800         0.212927
 O         2.309119        -1.138454        -0.185954
 H        -0.214379        -0.980479         0.592109
 H        -0.470282         0.826296         0.048031
 H        -0.105250        -0.506862        -1.088311
 H         1.696224         1.868477         1.148311
 H         1.469124         0.520294         2.287232
 H         4.046221         0.562330         2.186077
 H         5.010248         0.657072        -0.304211
 H         3.236573         2.457401        -0.801663
 H         3.263934         1.278034        -2.170449
 H         4.316479        -1.563455         0.234675
