19
Iteration:  4759
 C        -0.061917        -0.198175        -0.228675
 C         1.457562         0.040646         0.082323
 C         1.972804         0.528059         1.540223
 C         3.454911         0.310216         1.287670
 C         4.046497         0.764180        -0.086809
 C         3.145591         1.196037        -1.302660
 O         1.749649         1.169720        -0.831744
 C         3.596829        -0.697525         0.212679
 O         2.269322        -0.993047        -0.226698
 H        -0.368749        -0.957148         0.575681
 H        -0.628606         0.690698        -0.408492
 H        -0.065400        -0.780550        -1.087704
 H         1.494377         1.431081         1.738208
 H         1.534416        -0.214254         2.262987
 H         4.163507         0.337654         2.100353
 H         5.188768         0.947249        -0.174024
 H         3.371377         2.258919        -1.571705
 H         3.270144         0.414533        -2.066424
 H         4.195788        -1.636681         0.065603
