19
Iteration:  4361charge 0 multiplicity 1
 C        -0.053066        -0.350659        -0.122236
 C         1.443355         0.177268         0.068290
 C         1.955821         0.551285         1.441689
 C         3.392784         0.299775         1.326098
 C         4.044956         0.684512        -0.072555
 C         3.174082         1.150047        -1.288321
 O         1.746512         1.243029        -0.912683
 C         3.526592        -0.663063         0.289247
 O         2.349394        -0.989868        -0.274469
 H        -0.027109        -1.276656         0.523533
 H        -0.719818         0.446599         0.076101
 H        -0.206784        -0.679476        -1.123373
 H         1.588986         1.635911         1.538549
 H         1.520342         0.029744         2.248238
 H         4.119558         0.243512         2.167539
 H         5.215798         1.041107        -0.010607
 H         3.546211         2.060310        -1.615520
 H         3.275264         0.475325        -2.225878
 H         4.144291        -1.575611         0.260959
