19
Iteration:  1110
 C        -0.133462        -0.171852        -0.055604
 C         1.459519         0.086653         0.016021
 C         1.962680         0.623449         1.334779
 C         3.464195         0.401461         1.229793
 C         4.039047         0.612305        -0.199484
 C         3.120150         1.359760        -1.194792
 O         1.735685         1.027547        -0.984322
 C         3.635775        -0.754119         0.377121
 O         2.330688        -1.123691        -0.141829
 H        -0.465049        -0.842503         0.680383
 H        -0.589870         0.820571         0.092270
 H        -0.359754        -0.619095        -1.025725
 H         1.669183         1.682373         1.576366
 H         1.642554        -0.135047         2.161032
 H         4.034750         0.608544         2.155095
 H         5.115070         0.793700        -0.389634
 H         3.411793         2.461267        -1.108544
 H         3.328151         1.018538        -2.185212
 H         4.383444        -1.518966         0.516501
