19
Iteration:  1992
 C         0.001792        -0.326381        -0.051947
 C         1.425891         0.098089         0.045677
 C         1.957954         0.659609         1.435407
 C         3.419127         0.455758         1.235445
 C         4.090311         0.540677        -0.223692
 C         3.078241         1.162260        -1.258007
 O         1.777115         1.250024        -0.809764
 C         3.549930        -0.739500         0.281285
 O         2.290964        -1.023742        -0.267610
 H        -0.441391        -0.759319         0.804833
 H        -0.714419         0.493595        -0.359049
 H         0.095849        -1.129425        -0.850028
 H         1.628064         1.695758         1.566134
 H         1.612694         0.109084         2.251983
 H         4.214962         0.494264         2.003704
 H         5.165964         0.853147        -0.249154
 H         3.418205         2.148472        -1.573179
 H         3.288854         0.497570        -2.003550
 H         4.168235        -1.591784         0.626879
