19
Iteration:  1437charge 0 multiplicity 1
 C         0.029544        -0.186456        -0.069800
 C         1.535588         0.066894         0.034247
 C         2.005040         0.746897         1.394124
 C         3.454096         0.423172         1.278866
 C         3.952693         0.652300        -0.126824
 C         3.056707         1.366880        -1.111460
 O         1.719952         0.907100        -1.017846
 C         3.564030        -0.761704         0.205886
 O         2.293245        -1.158244        -0.165490
 H        -0.248809        -0.974905         0.696398
 H        -0.423800         0.831885         0.059587
 H        -0.128310        -0.473115        -1.104735
 H         1.853601         1.797438         1.160619
 H         1.515650         0.485392         2.310427
 H         4.055163         0.462213         2.231958
 H         5.042653         0.643834        -0.337762
 H         3.176153         2.418502        -0.785785
 H         3.305322         1.332413        -2.190901
 H         4.273357        -1.585196         0.182136
