19
Iteration:  2184
 C         0.024345        -0.286251        -0.160108
 C         1.462319         0.172010         0.137464
 C         2.030311         0.643913         1.472766
 C         3.484381         0.317775         1.275799
 C         4.022192         0.724090        -0.123396
 C         3.103801         1.068237        -1.273397
 O         1.724290         1.112657        -0.897966
 C         3.551462        -0.679442         0.197884
 O         2.208578        -0.937645        -0.198837
 H        -0.404826        -0.664239         0.781830
 H        -0.722352         0.418510        -0.550788
 H         0.182255        -1.179520        -0.952956
 H         1.708594         1.724653         1.694330
 H         1.775902         0.039915         2.397449
 H         4.088006         0.342311         2.165051
 H         5.083319         0.883816        -0.293536
 H         3.320576         2.072922        -1.646705
 H         3.444799         0.231624        -1.960245
 H         4.253267        -1.553408         0.143694
