19
Iteration:  4032charge 0 multiplicity 1
 C        -0.019571        -0.105993        -0.153542
 C         1.484359         0.046193         0.049885
 C         1.965417         0.639741         1.403155
 C         3.480142         0.331661         1.280266
 C         3.980439         0.711018        -0.079777
 C         3.142829         1.494219        -1.018157
 O         1.773862         0.899515        -1.100156
 C         3.571503        -0.763348         0.182900
 O         2.258154        -1.192050        -0.147826
 H        -0.413369        -0.589601         0.741495
 H        -0.494003         0.864253        -0.260650
 H        -0.330052        -0.649261        -1.047902
 H         1.673257         1.663530         1.517054
 H         1.450193         0.073590         2.197046
 H         4.110901         0.431825         2.192798
 H         5.064972         0.896294        -0.162304
 H         3.140174         2.488396        -0.666107
 H         3.482389         1.446104        -2.043951
 H         4.349409        -1.571936         0.069309
