19
Iteration:  4545charge 0 multiplicity 1
 C        -0.027677        -0.277880        -0.153620
 C         1.439856         0.064518         0.056822
 C         1.927489         0.516767         1.365357
 C         3.462501         0.446671         1.263354
 C         4.061761         0.617042        -0.120060
 C         3.159439         1.289374        -1.227358
 O         1.759081         1.251001        -0.804548
 C         3.561838        -0.734704         0.276106
 O         2.305560        -1.087174        -0.240595
 H        -0.298330        -1.133958         0.549226
 H        -0.794313         0.489375        -0.130181
 H        -0.135984        -0.626872        -1.143199
 H         1.356182         1.483108         1.611224
 H         1.673970        -0.122336         2.171602
 H         4.013255         0.690434         2.122746
 H         5.219875         0.626880        -0.307997
 H         3.457895         2.343554        -1.426179
 H         3.207252         0.861634        -2.249584
 H         4.053465        -1.658425         0.551816
