19
Iteration:  1178
 C         0.003435        -0.287071        -0.077942
 C         1.427692         0.040970         0.073505
 C         1.978761         0.796304         1.304004
 C         3.459532         0.385677         1.231671
 C         3.977325         0.528764        -0.131351
 C         3.060708         1.277386        -1.140507
 O         1.685672         1.181566        -0.932659
 C         3.664824        -0.794827         0.364646
 O         2.351555        -1.088684        -0.274319
 H        -0.492521        -0.850201         0.744179
 H        -0.463682         0.755940        -0.010162
 H        -0.223497        -0.787630        -0.998486
 H         1.719462         1.818864         1.337061
 H         1.609044         0.189952         2.271497
 H         4.110448         0.488311         2.087217
 H         5.028437         0.646910        -0.276736
 H         3.241764         2.374668        -1.210145
 H         3.428093         0.794687        -2.022932
 H         4.384934        -1.654806         0.449455
