19
Iteration:   873
 C        -0.080124        -0.229712         0.101877
 C         1.377042         0.023417        -0.005139
 C         1.938449         0.667024         1.267856
 C         3.499299         0.400110         1.159899
 C         4.085099         0.579996        -0.202149
 C         3.187984         1.431360        -1.124104
 O         1.762491         1.093690        -1.075037
 C         3.567799        -0.753693         0.324104
 O         2.287681        -1.204564        -0.102591
 H        -0.309015        -0.887570         0.933191
 H        -0.457873         0.831098         0.206887
 H        -0.478970        -0.710086        -0.829719
 H         1.692693         1.763372         1.178415
 H         1.429933         0.209649         2.131067
 H         3.966550         0.644385         2.105641
 H         5.137918         0.852468        -0.288463
 H         3.231369         2.524285        -0.819199
 H         3.609297         1.261542        -2.090435
 H         4.276120        -1.519366         0.589355
