19
Iteration:  1402
 C        -0.017613        -0.342893        -0.078881
 C         1.392763         0.107628        -0.054101
 C         1.992930         0.641442         1.438111
 C         3.495137         0.457710         1.247490
 C         4.028738         0.599094        -0.117004
 C         3.179167         1.209879        -1.253002
 O         1.741552         1.175993        -0.951187
 C         3.546215        -0.718432         0.260443
 O         2.279115        -1.035325        -0.138648
 H        -0.050164        -1.182820         0.607066
 H        -0.842510         0.369472         0.333044
 H        -0.442944        -0.788674        -0.974602
 H         1.545921         1.667783         1.652817
 H         1.671816        -0.002866         2.229888
 H         4.083106         0.490284         2.163183
 H         5.048198         0.713536        -0.379484
 H         3.439550         2.327744        -1.221976
 H         3.348260         0.838070        -2.237294
 H         4.267204        -1.500463         0.495335
