19
Iteration:  3505
 C        -0.010488        -0.339454        -0.126428
 C         1.435763         0.132343         0.045888
 C         1.966937         0.681695         1.366943
 C         3.439410         0.281416         1.241104
 C         4.034646         0.599071        -0.071084
 C         3.189648         1.492517        -1.093674
 O         1.778855         1.100527        -1.101656
 C         3.579073        -0.808892         0.221448
 O         2.195712        -1.050228        -0.080480
 H        -0.218711        -1.045122         0.695973
 H        -0.809601         0.444072        -0.091043
 H        -0.007509        -0.991521        -1.050067
 H         1.772584         1.764245         1.477154
 H         1.418680        -0.003947         2.144953
 H         4.182082         0.386878         2.056599
 H         5.106182         0.792161        -0.119379
 H         3.129693         2.482140        -0.888045
 H         3.749285         1.271290        -2.052396
 H         4.267131        -1.737807         0.277482
