19
Iteration:  2898
 C        -0.040439        -0.207273        -0.124525
 C         1.470099         0.098943         0.013321
 C         2.017554         0.675755         1.482657
 C         3.480228         0.350224         1.256884
 C         4.016151         0.658637        -0.166366
 C         3.128894         1.476766        -1.039823
 O         1.799726         0.915676        -1.136429
 C         3.567441        -0.734958         0.251407
 O         2.186869        -1.115077        -0.126118
 H        -0.185996        -1.107466         0.440987
 H        -0.725318         0.589277         0.170654
 H        -0.110655        -0.432427        -1.157449
 H         1.775984         1.687060         1.576256
 H         1.535744        -0.029352         2.178600
 H         4.205453         0.305483         2.083404
 H         5.094846         0.721872        -0.199985
 H         3.020680         2.440571        -0.609107
 H         3.536859         1.470095        -2.010040
 H         4.192435        -1.648469         0.189533
