19
Iteration:   740
 C        -0.040305        -0.311224        -0.013332
 C         1.486857         0.145996        -0.010341
 C         1.984898         0.682607         1.432015
 C         3.454980         0.349267         1.323765
 C         4.072655         0.711787        -0.118259
 C         3.170533         1.137028        -1.306480
 O         1.733187         1.111135        -0.992385
 C         3.576646        -0.711546         0.291610
 O         2.221026        -1.030243        -0.195916
 H        -0.031378        -1.213752         0.723286
 H        -0.587688         0.497100         0.419646
 H        -0.400280        -0.538630        -1.038048
 H         1.858952         1.826287         1.477592
 H         1.187763         0.337454         2.169524
 H         4.175262         0.408545         2.147980
 H         5.138325         1.000229        -0.058592
 H         3.186217         2.116174        -1.816757
 H         3.373297         0.466240        -2.088828
 H         4.163131        -1.608424         0.437159
