19
Iteration:  2053
 C        -0.054371        -0.117776         0.018163
 C         1.489660        -0.032903         0.022576
 C         1.958874         0.704963         1.318710
 C         3.461732         0.441079         1.151596
 C         4.038725         0.562941        -0.198994
 C         3.129541         1.492927        -1.050247
 O         1.784038         0.907105        -1.024889
 C         3.539684        -0.776448         0.293783
 O         2.300736        -1.177694        -0.152736
 H        -0.361043        -0.826815         0.797193
 H        -0.362422         0.874366         0.226802
 H        -0.519760        -0.420515        -0.984819
 H         1.816852         1.842595         1.394921
 H         1.572907         0.299640         2.333924
 H         4.056568         0.831614         2.029282
 H         5.093214         0.631197        -0.255265
 H         2.846806         2.527904        -0.920192
 H         3.381568         1.512527        -2.205819
 H         4.163532        -1.629766         0.304522
