19
Iteration:  2754
 C         0.024518        -0.154901        -0.175417
 C         1.486828         0.106696         0.028743
 C         1.883674         0.537813         1.436326
 C         3.408210         0.461378         1.257555
 C         4.030982         0.718152        -0.102347
 C         3.081477         1.078231        -1.229017
 O         1.746357         1.147587        -0.813392
 C         3.618707        -0.718862         0.328556
 O         2.335951        -1.116126        -0.278105
 H        -0.308910        -1.132691         0.042229
 H        -0.493716         0.626506         0.390744
 H        -0.192179         0.188083        -1.246008
 H         1.716742         1.588007         1.527118
 H         1.481017        -0.160627         2.202216
 H         4.063665         0.570912         2.114093
 H         5.077245         0.928335        -0.335376
 H         3.275146         2.163025        -1.589489
 H         3.057509         0.421677        -2.125960
 H         4.401767        -1.410400         0.507159
