19
Iteration:  4002
 C         0.012394        -0.257508        -0.153426
 C         1.481058         0.081791         0.066283
 C         1.930779         0.638461         1.360348
 C         3.459116         0.378920         1.268351
 C         4.078649         0.630943        -0.121350
 C         3.198228         1.312095        -1.141930
 O         1.670788         1.181362        -0.930900
 C         3.571181        -0.808458         0.317811
 O         2.279204        -1.095487        -0.256570
 H        -0.295667        -1.002265         0.537899
 H        -0.723277         0.546459         0.071683
 H        -0.180941        -0.666951        -1.230309
 H         1.569570         1.696319         1.438603
 H         1.514105         0.064199         2.197029
 H         4.003804         0.385000         2.231685
 H         5.041599         0.825435        -0.115042
 H         3.450033         2.456426        -1.016182
 H         3.300276         1.004497        -2.216735
 H         4.151514        -1.767254         0.495588
