19
Iteration:     1charge 0 multiplicity 1
 C         0.004200        -0.247119        -0.062049
 C         1.473177         0.097493         0.027068
 C         1.976210         0.706537         1.358938
 C         3.462312         0.417396         1.255811
 C         4.012140         0.611342        -0.150747
 C         3.142303         1.333841        -1.162323
 O         1.759023         0.991272        -1.034933
 C         3.546451        -0.745437         0.298366
 O         2.248391        -1.092261        -0.129649
 H        -0.262005        -0.961897         0.719511
 H        -0.599459         0.656070         0.052543
 H        -0.207952        -0.688446        -1.038320
 H         1.719254         1.767350         1.413035
 H         1.537206         0.190562         2.218946
 H         4.110806         0.509696         2.118095
 H         5.079751         0.777539        -0.253769
 H         3.246187         2.423089        -1.051560
 H         3.458746         1.076612        -2.181938
 H         4.202727        -1.599655         0.404049
