19
Iteration:   497charge 0 multiplicity 1
 C         0.005735        -0.322903        -0.040762
 C         1.469163         0.105133        -0.019143
 C         2.044541         0.762074         1.488099
 C         3.506053         0.396672         1.322575
 C         3.963054         0.601004        -0.001224
 C         3.098202         1.163387        -1.213440
 O         1.648253         1.074814        -1.023901
 C         3.532132        -0.743161         0.271132
 O         2.332307        -0.953830        -0.318275
 H        -0.177877        -0.863317         0.844308
 H        -0.563553         0.622638        -0.094694
 H        -0.054442        -0.976806        -0.937839
 H         1.839751         1.779092         1.272429
 H         1.377508         0.385393         2.411652
 H         4.131728         0.307889         2.184515
 H         5.016248         0.885680        -0.228598
 H         3.460612         2.188110        -1.494051
 H         3.464913         0.382292        -1.978912
 H         4.191769        -1.559136         0.355044
