19
Iteration:   852charge 0 multiplicity 1
 C         0.019448        -0.228947         0.037610
 C         1.484615         0.130492         0.010470
 C         2.060818         0.804439         1.316090
 C         3.478571         0.386702         1.307156
 C         3.990424         0.592070        -0.155474
 C         3.108383         1.415721        -1.075789
 O         1.763499         0.874281        -1.095239
 C         3.532613        -0.776342         0.195464
 O         2.220182        -1.116661        -0.159707
 H        -0.193041        -0.767660         0.921014
 H        -0.668274         0.647910         0.023672
 H        -0.286674        -0.955557        -0.739525
 H         1.725739         1.939810         1.189340
 H         1.468801         0.342846         2.147942
 H         4.100161         0.494433         2.201314
 H         5.062915         0.692452        -0.333879
 H         3.055961         2.466660        -0.639817
 H         3.592265         1.430895        -2.013983
 H         4.112054        -1.684930         0.239228
