19
Iteration:  3528charge 0 multiplicity 1
 C         0.076568        -0.277252        -0.227054
 C         1.457475         0.134266         0.052634
 C         1.937923         0.614367         1.458255
 C         3.494915         0.397725         1.308427
 C         3.965943         0.611768        -0.121575
 C         3.152502         1.310940        -1.198032
 O         1.764375         1.117622        -0.910464
 C         3.511044        -0.707445         0.311779
 O         2.235954        -1.084131        -0.242038
 H        -0.291950        -0.805577         0.637943
 H        -0.581254         0.635743        -0.301897
 H         0.025029        -1.019108        -1.104970
 H         1.683028         1.663792         1.568530
 H         1.432166        -0.108433         2.230061
 H         4.190198         0.330340         2.182366
 H         5.100786         0.662474        -0.336095
 H         3.229564         2.342627        -1.138317
 H         3.560576         0.883086        -2.166446
 H         4.292934        -1.500018         0.406839
