19
Iteration:   734
 C        -0.033126        -0.299919        -0.016722
 C         1.496966         0.118976         0.000436
 C         1.889247         0.699141         1.431074
 C         3.463716         0.362756         1.357128
 C         4.037131         0.677033        -0.169196
 C         3.175177         1.136844        -1.342203
 O         1.765127         1.119325        -0.946295
 C         3.550491        -0.733554         0.319042
 O         2.272553        -1.001974        -0.215133
 H        -0.094289        -1.160275         0.575582
 H        -0.666576         0.492482         0.456383
 H        -0.438910        -0.643437        -0.972731
 H         1.877485         1.818971         1.371258
 H         1.437081         0.314426         2.346202
 H         4.151429         0.433930         2.197300
 H         5.115422         0.914792        -0.265672
 H         3.263445         2.190280        -1.645670
 H         3.298553         0.413777        -2.250753
 H         4.304366        -1.554367         0.365904
