19
Iteration:  3840charge 0 multiplicity 1
 C        -0.001948        -0.277592        -0.044118
 C         1.473351         0.102842        -0.029446
 C         1.964694         0.690659         1.273834
 C         3.484099         0.311112         1.254141
 C         4.043850         0.627012        -0.061055
 C         3.188295         1.529617        -0.970111
 O         1.732021         0.994295        -1.117925
 C         3.518556        -0.780537         0.290117
 O         2.241765        -1.111034        -0.180087
 H        -0.264719        -0.816937         0.843965
 H        -0.724364         0.564268        -0.085880
 H        -0.174772        -0.913937        -1.000540
 H         1.870974         1.843868         1.364190
 H         1.386687         0.290870         2.116683
 H         4.037319         0.224061         2.208883
 H         5.117414         0.504111        -0.269885
 H         3.310288         2.564007        -0.670717
 H         3.473603         1.442692        -2.015539
 H         4.141897        -1.648363         0.260259
