19
Iteration:   776charge 0 multiplicity 1
 C         0.006765        -0.212309        -0.023290
 C         1.450291         0.087103         0.018061
 C         1.980653         0.671519         1.420732
 C         3.451981         0.431429         1.294066
 C         4.019909         0.555266        -0.196710
 C         3.108855         1.346063        -1.258596
 O         1.764126         0.986068        -1.009019
 C         3.581791        -0.707291         0.340889
 O         2.270583        -1.086098        -0.185662
 H        -0.317085        -0.893669         0.684811
 H        -0.450073         0.735031         0.228826
 H        -0.434926        -0.569582        -0.956208
 H         1.722896         1.878550         1.345149
 H         1.381213         0.074297         2.214636
 H         4.234198         0.611801         2.013866
 H         5.145591         0.672268        -0.171103
 H         3.332912         2.383217        -1.070448
 H         3.335847         0.967688        -2.275184
 H         4.098630        -1.696818         0.505482
