19
Iteration:  1207
 C        -0.014033        -0.279918        -0.052497
 C         1.448847         0.074648         0.066952
 C         1.953953         0.630465         1.430914
 C         3.448810         0.418856         1.249410
 C         4.027627         0.635558        -0.154180
 C         3.164758         1.395996        -1.191298
 O         1.801318         1.004692        -1.084689
 C         3.602544        -0.730446         0.228354
 O         2.154712        -1.066432        -0.113257
 H        -0.094681        -0.984898         0.721648
 H        -0.581292         0.635992         0.211087
 H        -0.293632        -0.701817        -1.008954
 H         1.669970         1.695261         1.640294
 H         1.699674        -0.022302         2.241698
 H         4.177483         0.434997         2.065308
 H         5.093858         0.826498        -0.064554
 H         3.241779         2.530270        -1.169444
 H         3.667916         1.050638        -2.134982
 H         4.332580        -1.592437         0.278056
