19
Iteration:  2052
 C        -0.050922        -0.118258         0.016360
 C         1.489845        -0.030515         0.023042
 C         1.960389         0.696538         1.320356
 C         3.456422         0.438694         1.158644
 C         4.043956         0.575402        -0.192601
 C         3.125682         1.489591        -1.066983
 O         1.780569         0.913671        -1.025228
 C         3.539921        -0.783277         0.293299
 O         2.298029        -1.178202        -0.150687
 H        -0.372237        -0.827339         0.824679
 H        -0.350452         0.891425         0.188185
 H        -0.524140        -0.399053        -0.956911
 H         1.826667         1.806556         1.391790
 H         1.584279         0.293756         2.332965
 H         4.057592         0.813592         2.030471
 H         5.103284         0.633088        -0.254648
 H         2.857400         2.521252        -0.943300
 H         3.388601         1.500198        -2.190514
 H         4.198029        -1.608166         0.312037
