19
Iteration:  3312
 C        -0.032456        -0.161566        -0.109288
 C         1.480402         0.050048         0.006549
 C         1.950429         0.603985         1.359251
 C         3.447397         0.396822         1.272252
 C         4.014147         0.639216        -0.153725
 C         3.158332         1.406673        -1.088652
 O         1.744701         1.045319        -0.945015
 C         3.639068        -0.735144         0.276966
 O         2.258822        -1.206125        -0.221051
 H        -0.428750        -0.922653         0.542934
 H        -0.520786         0.801175         0.125374
 H        -0.269596        -0.406584        -1.145772
 H         1.637719         1.600740         1.313545
 H         1.584927         0.075283         2.245049
 H         3.895939         0.542839         2.218343
 H         5.180607         0.906104        -0.339429
 H         3.079642         2.457614        -0.868308
 H         3.467186         1.326336        -2.153836
 H         4.237233        -1.590024         0.506642
