19
Iteration:  2021charge 0 multiplicity 1
 C         0.009664        -0.185271        -0.024847
 C         1.463838         0.178023         0.003427
 C         2.013708         0.585528         1.462317
 C         3.478860         0.325710         1.324658
 C         3.994501         0.705805        -0.085908
 C         3.095773         1.255577        -1.240954
 O         1.712867         1.028430        -1.089024
 C         3.568208        -0.750142         0.209622
 O         2.256404        -1.025690        -0.128030
 H        -0.292026        -0.680278         0.910043
 H        -0.630216         0.629699        -0.240218
 H        -0.190534        -0.901223        -0.897209
 H         1.901350         1.640824         1.902581
 H         1.600916        -0.185750         2.198189
 H         4.268660         0.507868         2.103491
 H         5.058181         0.814290        -0.180532
 H         3.198039         2.342500        -1.584522
 H         3.579633         0.529513        -2.037394
 H         4.304258        -1.492120         0.067035
