19
Iteration:   137charge 0 multiplicity 1
 C         0.004781        -0.323787         0.045898
 C         1.480691         0.100261        -0.027937
 C         1.963604         0.785084         1.242503
 C         3.475933         0.356148         1.265140
 C         4.034303         0.598673        -0.112373
 C         3.110108         1.314655        -1.039990
 O         1.726931         1.015044        -1.067044
 C         3.611312        -0.768078         0.261696
 O         2.241773        -1.055391        -0.189299
 H        -0.197356        -0.897163         1.048440
 H        -0.594669         0.672138        -0.017306
 H        -0.440578        -0.897726        -0.841990
 H         1.948222         1.838828         1.086848
 H         1.532596         0.403079         2.164259
 H         3.976231         0.503357         2.182513
 H         5.040721         0.938116        -0.141420
 H         3.205450         2.421414        -0.751645
 H         3.477014         1.180816        -2.026059
 H         4.190195        -1.650715         0.320891
