19
Iteration:  2893
 C        -0.033188        -0.196872        -0.117749
 C         1.491372         0.151676         0.057471
 C         2.021656         0.659880         1.472717
 C         3.484267         0.309940         1.279604
 C         4.007453         0.664862        -0.152933
 C         3.111505         1.525900        -1.032026
 O         1.809369         0.879127        -1.202791
 C         3.514104        -0.734490         0.240918
 O         2.219496        -1.157690        -0.110089
 H        -0.299892        -1.082438         0.524637
 H        -0.759264         0.611091         0.122071
 H        -0.266212        -0.489324        -1.216122
 H         1.822356         1.801980         1.648257
 H         1.623769        -0.138071         2.165891
 H         4.161402         0.493091         2.121935
 H         5.102612         0.728648        -0.262829
 H         3.151558         2.599944        -0.547780
 H         3.536582         1.605977        -2.094021
 H         4.105683        -1.626025         0.112642
