19
Iteration:   221
 C        -0.003102        -0.206798        -0.159249
 C         1.436289         0.042264         0.067831
 C         2.029472         0.668441         1.414414
 C         3.507317         0.499470         1.226615
 C         3.920360         0.560550        -0.144599
 C         3.120510         1.358755        -1.140676
 O         1.748531         1.015950        -1.021155
 C         3.615487        -0.775707         0.292439
 O         2.259228        -1.118864        -0.111409
 H        -0.344969        -1.079722         0.412165
 H        -0.608697         0.606773         0.148008
 H        -0.134965        -0.395934        -1.195064
 H         1.701468         1.716006         1.426352
 H         1.494858         0.211340         2.313949
 H         4.234024         0.686184         1.972312
 H         4.967753         0.798633        -0.276284
 H         3.165124         2.417183        -0.985464
 H         3.439928         1.151617        -2.198488
 H         4.251604        -1.607953         0.373626
