19
Iteration:  2854
 C        -0.023499        -0.111949        -0.035946
 C         1.391183        -0.008820         0.023985
 C         1.976479         0.715704         1.286454
 C         3.460937         0.349815         1.244816
 C         4.095128         0.656024        -0.148723
 C         3.092761         1.513803        -0.895709
 O         1.805902         0.858595        -1.127302
 C         3.534274        -0.765674         0.197590
 O         2.283179        -1.206544        -0.190814
 H        -0.380952        -0.359618         0.917982
 H        -0.205332         0.967587        -0.198321
 H        -0.366244        -0.728257        -0.854462
 H         1.756692         1.751425         1.269235
 H         1.577123         0.328154         2.216923
 H         3.995093         0.423572         2.220294
 H         5.134590         0.958246        -0.254896
 H         2.813681         2.355563        -0.272214
 H         3.386031         1.815520        -1.862989
 H         4.345074        -1.524715         0.376311
