19
Iteration:  1055charge 0 multiplicity 1
 C         0.035275        -0.311137         0.006455
 C         1.451493         0.172273        -0.047612
 C         1.995451         0.724155         1.347497
 C         3.497847         0.343735         1.220056
 C         4.081379         0.626388        -0.174312
 C         3.165865         1.511023        -1.094858
 O         1.788402         0.951283        -1.223867
 C         3.485892        -0.755802         0.260849
 O         2.137934        -1.140194         0.012727
 H         0.037050        -1.050567         0.771348
 H        -0.631957         0.438801         0.459420
 H        -0.382750        -0.743133        -0.945189
 H         1.707147         1.828524         1.558044
 H         1.474314         0.076595         2.196779
 H         4.212471         0.058035         2.011585
 H         5.179205         0.644604        -0.381275
 H         3.189889         2.465901        -0.496038
 H         3.451041         1.644198        -2.099440
 H         4.187025        -1.443940         0.624303
