19
Iteration:  1511
 C        -0.012282        -0.264844        -0.073481
 C         1.435275         0.108270         0.049748
 C         2.055702         0.766796         1.286965
 C         3.524888         0.302971         1.300592
 C         4.022242         0.589414        -0.149811
 C         3.013618         1.434848        -1.100010
 O         1.671678         0.980989        -1.053327
 C         3.608104        -0.770467         0.313035
 O         2.279626        -1.164228        -0.153982
 H        -0.212534        -0.775535         0.871636
 H        -0.423462         0.784854        -0.071004
 H        -0.112946        -0.748804        -1.008868
 H         2.193477         1.927183         1.130760
 H         1.445185         0.533336         2.143614
 H         3.915045         0.596970         2.320442
 H         5.105873         0.874668        -0.185380
 H         3.057338         2.548468        -0.920155
 H         3.425932         1.281476        -2.066542
 H         4.415552        -1.481932         0.125826
