19
Iteration:  4320charge 0 multiplicity 1
 C        -0.053734        -0.327951        -0.115761
 C         1.447231         0.102056         0.032352
 C         1.944903         0.649664         1.357503
 C         3.466897         0.389250         1.252045
 C         4.040767         0.609480        -0.136259
 C         3.186292         1.372452        -1.153604
 O         1.714970         1.126142        -0.934430
 C         3.578847        -0.775758         0.355252
 O         2.276899        -1.072324        -0.248067
 H        -0.259995        -1.400966         0.225411
 H        -0.687204         0.500569         0.302042
 H        -0.190772        -0.424254        -1.192912
 H         1.740614         1.742038         1.494701
 H         1.501406         0.121039         2.223879
 H         4.079121         0.331977         2.116802
 H         5.221442         0.553692        -0.181429
 H         3.288717         2.508574        -1.006516
 H         3.631204         1.196247        -2.171435
 H         4.274082        -1.589993         0.559073
