19
Iteration:  4062charge 0 multiplicity 1
 C        -0.050822        -0.185869        -0.115778
 C         1.451039         0.088153        -0.054353
 C         2.010491         0.676058         1.351790
 C         3.523843         0.320991         1.272040
 C         3.980410         0.638385        -0.130299
 C         3.094659         1.581767        -0.896949
 O         1.896427         0.831517        -1.216736
 C         3.488235        -0.764467         0.284297
 O         2.218146        -1.122144        -0.116665
 H        -0.126574        -0.670897         0.922027
 H        -0.546990         0.780206        -0.108586
 H        -0.479880        -0.875850        -0.764018
 H         1.685000         1.675734         1.578667
 H         1.454149        -0.055534         1.985830
 H         4.140195         0.455806         2.169835
 H         5.119300         0.750430        -0.504207
 H         3.012870         2.515631        -0.218819
 H         3.499985         1.946339        -1.836130
 H         4.243502        -1.517160         0.119733
