19
Iteration:  1785charge 0 multiplicity 1
 C         0.063119        -0.293296         0.031440
 C         1.482644         0.215645         0.059707
 C         1.936725         0.635946         1.470118
 C         3.408555         0.386864         1.287807
 C         4.025599         0.643533        -0.072724
 C         3.130740         1.065311        -1.338101
 O         1.708583         1.186735        -0.943396
 C         3.578970        -0.696059         0.250458
 O         2.283989        -1.013398        -0.320309
 H        -0.144933        -1.036959         0.770827
 H        -0.569003         0.539974         0.118963
 H        -0.043642        -0.850369        -0.947526
 H         1.600617         1.700092         1.688980
 H         1.618965        -0.100019         2.243129
 H         3.998106         0.499582         2.227826
 H         5.039946         0.966279        -0.224068
 H         3.511652         1.990720        -1.756052
 H         3.096854         0.181208        -2.066221
 H         4.298376        -1.518884         0.444810
