19
Iteration:  4208charge 0 multiplicity 1
 C         0.076401        -0.356219        -0.168547
 C         1.428740         0.161321         0.071203
 C         1.929173         0.619663         1.467465
 C         3.435113         0.350441         1.277822
 C         3.939599         0.590716        -0.126516
 C         3.226372         1.396388        -1.184219
 O         1.787925         1.175299        -1.064284
 C         3.531725        -0.767409         0.276986
 O         2.232993        -1.098460        -0.138891
 H        -0.214759        -0.949445         0.665980
 H        -0.626804         0.435614        -0.159263
 H         0.040738        -0.961808        -1.101820
 H         1.691304         1.654037         1.810421
 H         1.558483        -0.072423         2.182584
 H         4.139540         0.545357         2.107914
 H         4.983054         0.798858        -0.082668
 H         3.320523         2.581528        -1.149433
 H         3.630126         1.087533        -2.146353
 H         4.140585        -1.656258         0.300385
