19
Iteration:  3663
 C        -0.039516        -0.129151        -0.103998
 C         1.473993         0.049227        -0.062763
 C         2.005429         0.672087         1.348358
 C         3.536244         0.297159         1.268100
 C         4.069400         0.670192        -0.128458
 C         3.067684         1.550930        -0.910212
 O         1.847870         0.826565        -1.211221
 C         3.485110        -0.747795         0.223472
 O         2.196454        -1.099257        -0.074175
 H        -0.266650        -0.975698         0.665794
 H        -0.640743         0.776348        -0.059893
 H        -0.361713        -0.684826        -0.973850
 H         1.973116         1.773157         1.670555
 H         1.503865        -0.042204         2.046529
 H         4.050890         0.326523         2.230393
 H         5.095641         0.779204        -0.228963
 H         2.718791         2.344296        -0.358147
 H         3.584867         1.899226        -1.814427
 H         4.261158        -1.566926         0.312918
