19
Iteration:  3081
 C        -0.015998        -0.168405         0.007652
 C         1.450444        -0.021455        -0.037250
 C         1.978514         0.680608         1.247749
 C         3.461798         0.345823         1.297060
 C         4.047861         0.649521        -0.132157
 C         3.093991         1.560521        -0.983370
 O         1.814628         0.935525        -1.074461
 C         3.581377        -0.768207         0.305081
 O         2.249906        -1.181601        -0.243308
 H        -0.487642        -0.937207         0.615430
 H        -0.534402         0.730786         0.253105
 H        -0.321714        -0.347855        -0.961021
 H         1.733946         1.685762         1.080190
 H         1.443518         0.331558         2.174509
 H         4.049435         0.572177         2.205904
 H         5.127202         0.674040        -0.189132
 H         3.099368         2.533010        -0.451588
 H         3.290705         1.650164        -2.016271
 H         4.202232        -1.681985         0.456360
