19
Iteration:  3893
 C        -0.031574        -0.223772        -0.110501
 C         1.513642         0.166378        -0.051624
 C         1.981551         0.580491         1.317172
 C         3.484700         0.368240         1.276775
 C         4.016846         0.666030        -0.096876
 C         3.126206         1.477042        -1.045101
 O         1.821138         0.984890        -1.061733
 C         3.553420        -0.749656         0.230009
 O         2.186035        -1.168837        -0.079101
 H        -0.268379        -0.811869         0.772113
 H        -0.669997         0.660995        -0.247083
 H        -0.220209        -0.818862        -1.056830
 H         1.853009         1.644262         1.644832
 H         1.411003        -0.075277         1.987111
 H         4.107290         0.549644         2.173268
 H         4.993910         0.744830        -0.106603
 H         3.138413         2.530802        -0.615398
 H         3.478126         1.369410        -2.038564
 H         4.132304        -1.645307         0.049500
