19
Iteration:   116charge 0 multiplicity 1
 C        -0.033567        -0.307772         0.009987
 C         1.425984         0.109595         0.049760
 C         1.987543         0.686808         1.482235
 C         3.458880         0.453949         1.271185
 C         4.006133         0.624349        -0.184151
 C         3.255525         1.471078        -1.248408
 O         1.821613         1.031794        -1.087266
 C         3.462768        -0.731889         0.289038
 O         2.239421        -1.188556        -0.159577
 H        -0.198700        -1.022055         0.925110
 H        -0.888408         0.482942        -0.117695
 H        -0.193683        -0.973100        -0.928176
 H         1.577114         1.730654         1.442005
 H         1.710316        -0.035395         2.242276
 H         4.100737         0.461461         2.120619
 H         5.056094         0.545535        -0.279208
 H         3.263165         2.601262        -1.130079
 H         3.507474         1.199511        -2.253152
 H         4.137847        -1.528289         0.438429
