19
Iteration:  1870charge 0 multiplicity 1
 C        -0.067455        -0.295831         0.035302
 C         1.443426         0.146571        -0.012526
 C         2.075243         0.794806         1.332378
 C         3.575941         0.375768         1.242061
 C         4.069595         0.608008        -0.172125
 C         3.097530         1.494962        -0.967857
 O         1.756364         0.871867        -1.230253
 C         3.456054        -0.780581         0.284739
 O         2.226749        -1.106545        -0.117088
 H        -0.347239        -1.009002         0.868789
 H        -0.794143         0.476944         0.179466
 H        -0.295731        -0.772227        -0.999089
 H         1.858288         1.905290         1.416849
 H         1.711356         0.427996         2.250317
 H         4.326125         0.124542         2.036464
 H         5.110086         0.377412        -0.390571
 H         3.005180         2.494089        -0.493515
 H         3.417786         1.738195        -1.967035
 H         4.279629        -1.511788         0.291867
