19
Iteration:  3777charge 0 multiplicity 1
 C        -0.037037        -0.220257        -0.213679
 C         1.462464         0.042151        -0.013945
 C         1.920776         0.562618         1.469162
 C         3.429684         0.449890         1.272909
 C         3.970885         0.650425        -0.089173
 C         3.125782         1.173963        -1.228350
 O         1.756181         1.240066        -0.830004
 C         3.673993        -0.768004         0.386155
 O         2.298981        -1.061625        -0.292365
 H        -0.218280        -1.126777         0.202429
 H        -0.582525         0.617560         0.208006
 H        -0.386113        -0.268990        -1.301801
 H         1.772770         1.607779         1.531376
 H         1.464923        -0.009351         2.244389
 H         4.259569         0.499678         1.978573
 H         5.147840         0.870666        -0.207393
 H         3.275088         2.186506        -1.529351
 H         3.363913         0.368039        -1.974636
 H         4.267206        -1.654230         0.364278
