19
Iteration:  1960charge 0 multiplicity 1
 C        -0.000171        -0.306695        -0.135224
 C         1.456892         0.063100         0.081658
 C         1.998741         0.585038         1.482322
 C         3.457888         0.447652         1.210100
 C         3.970280         0.581146        -0.224976
 C         3.098423         1.230653        -1.350873
 O         1.788194         1.295205        -0.844749
 C         3.586347        -0.716039         0.317270
 O         2.248505        -1.118458        -0.114632
 H        -0.379030        -1.017955         0.561408
 H        -0.554543         0.671558        -0.134224
 H        -0.000311        -0.668029        -1.188074
 H         1.589332         1.578540         1.568353
 H         1.605407        -0.009713         2.267471
 H         4.205174         0.661425         1.991859
 H         5.064979         0.795894        -0.229300
 H         3.473370         2.207733        -1.656118
 H         3.209407         0.601151        -2.252495
 H         4.183258        -1.632177         0.416423
