19
Iteration:  4769charge 0 multiplicity 1
 C        -0.051959        -0.278793        -0.179951
 C         1.435589         0.109765         0.079577
 C         1.920915         0.514538         1.464228
 C         3.462054         0.347210         1.324185
 C         4.079649         0.680145        -0.139257
 C         3.127460         1.214077        -1.240525
 O         1.744372         1.263030        -0.815448
 C         3.652080        -0.705945         0.221147
 O         2.276293        -1.064462        -0.250972
 H        -0.784704        -0.831057         0.431433
 H        -0.608354         0.612628        -0.334083
 H         0.047979        -0.754117        -1.138028
 H         1.642923         1.518455         1.577221
 H         1.603323        -0.190313         2.287550
 H         4.069906         0.496979         2.213925
 H         5.166375         0.880680        -0.308437
 H         3.424583         2.234354        -1.692663
 H         3.165598         0.584521        -2.147330
 H         4.240116        -1.664112         0.377770
