19
Iteration:  2342charge 0 multiplicity 1
 C         0.119204        -0.326545        -0.133819
 C         1.501885         0.195877         0.118780
 C         1.980347         0.732398         1.472127
 C         3.508464         0.305164         1.313272
 C         3.931597         0.633777        -0.100696
 C         3.126841         1.240118        -1.296853
 O         1.689373         1.125371        -0.979108
 C         3.555938        -0.749875         0.263579
 O         2.210070        -1.035474        -0.217450
 H        -0.099373        -1.217753         0.549365
 H        -0.649036         0.409167         0.062727
 H        -0.005488        -0.740868        -1.052557
 H         1.878785         1.811470         1.561489
 H         1.470925         0.190630         2.325140
 H         4.295955         0.510108         2.115346
 H         5.007985         0.782555        -0.195551
 H         3.447971         2.261836        -1.451806
 H         3.257472         0.532476        -2.238718
 H         4.113179        -1.713042         0.382807
