19
Iteration:  3807charge 0 multiplicity 1
 C         0.008605        -0.137299        -0.134201
 C         1.451570         0.123611         0.048524
 C         1.888663         0.490498         1.455238
 C         3.395542         0.427159         1.239026
 C         3.990662         0.671984        -0.105645
 C         3.214394         1.354131        -1.177875
 O         1.761827         1.014372        -0.968995
 C         3.599724        -0.747928         0.276975
 O         2.299961        -1.088473        -0.183649
 H        -0.404533        -1.008379         0.365637
 H        -0.603765         0.767795         0.102489
 H        -0.154270        -0.437732        -1.228193
 H         1.641967         1.595755         1.712380
 H         1.472248        -0.259906         2.139176
 H         4.149932         0.542466         2.025406
 H         5.073002         0.681562        -0.135165
 H         3.227362         2.437823        -1.273802
 H         3.570291         0.881462        -2.113972
 H         4.255858        -1.573283         0.176499
