19
Iteration:  2475charge 0 multiplicity 1
 C         0.042195        -0.293577         0.068721
 C         1.483832         0.163392        -0.082076
 C         1.961778         0.701684         1.258118
 C         3.463207         0.363974         1.207387
 C         3.950192         0.596445        -0.183789
 C         3.147236         1.546844        -0.938915
 O         1.844188         0.957453        -1.194145
 C         3.535851        -0.842643         0.280150
 O         2.167567        -1.122579        -0.071653
 H        -0.023722        -1.013267         0.824407
 H        -0.630088         0.528474         0.091565
 H        -0.195105        -0.778961        -0.920418
 H         1.913200         1.787016         1.441041
 H         1.505972         0.184866         2.111219
 H         4.142084         0.556320         2.028626
 H         5.066867         0.668672        -0.117987
 H         3.147795         2.497157        -0.497996
 H         3.538947         1.727991        -1.961084
 H         4.137690        -1.728874         0.477212
