19
Iteration:   407charge 0 multiplicity 1
 C        -0.035437        -0.265449        -0.002953
 C         1.495888         0.061552         0.015389
 C         2.043257         0.805402         1.288841
 C         3.473519         0.318696         1.351500
 C         3.954979         0.650836        -0.065267
 C         3.106533         1.374351        -1.044473
 O         1.736469         0.922339        -1.166981
 C         3.625125        -0.721939         0.211228
 O         2.227421        -1.104801        -0.147508
 H        -0.521311        -1.000981         0.672387
 H        -0.430074         0.689314         0.256254
 H        -0.402578        -0.583745        -0.971858
 H         1.988735         1.915976         1.074820
 H         1.475534         0.637145         2.288652
 H         4.189944         0.349010         2.198536
 H         5.020229         0.799323        -0.097536
 H         3.097093         2.509463        -0.906027
 H         3.628897         1.111793        -2.043040
 H         4.368769        -1.571737         0.053395
