19
Iteration:  4070charge 0 multiplicity 1
 C        -0.086744        -0.199210        -0.076281
 C         1.445111         0.075218        -0.154037
 C         2.004362         0.694282         1.302092
 C         3.513608         0.384398         1.315687
 C         3.990371         0.600900        -0.107796
 C         3.129029         1.572183        -0.878063
 O         1.841950         0.924854        -1.188274
 C         3.549437        -0.808003         0.247834
 O         2.232966        -1.195296        -0.092212
 H        -0.375059        -0.744189         0.901540
 H        -0.639975         0.774495        -0.022199
 H        -0.304534        -0.943800        -0.940673
 H         1.883600         1.823807         1.447935
 H         1.552631         0.167759         2.194394
 H         4.204414         0.492376         2.122607
 H         5.104833         0.644293        -0.437214
 H         2.758490         2.545527        -0.275201
 H         3.658880         1.929975        -1.815128
 H         4.223905        -1.585887         0.058937
