19
Iteration:  1276
 C        -0.075978        -0.255839        -0.072626
 C         1.427774         0.051376        -0.008508
 C         2.016428         0.821607         1.307544
 C         3.514841         0.339896         1.247353
 C         4.066226         0.664754        -0.165818
 C         3.093144         1.446966        -1.025316
 O         1.760427         0.958907        -1.060453
 C         3.592395        -0.796147         0.301465
 O         2.260769        -1.167770        -0.149160
 H        -0.252154        -0.950797         0.758674
 H        -0.690187         0.584146         0.240190
 H        -0.506884        -0.684227        -0.946888
 H         1.922592         1.845873         1.098846
 H         1.487165         0.405653         2.258635
 H         4.079518         0.472356         2.173618
 H         5.118185         0.603794        -0.421540
 H         3.147046         2.501894        -0.511258
 H         3.338965         1.610145        -2.073776
 H         4.207321        -1.700049         0.312132
