19
Iteration:  3215
 C        -0.064095        -0.199515        -0.129476
 C         1.432205         0.023296         0.008672
 C         2.012293         0.553320         1.475799
 C         3.479738         0.341567         1.325235
 C         3.971121         0.715063        -0.074634
 C         3.193443         1.418740        -1.143466
 O         1.710733         1.050722        -1.071196
 C         3.620927        -0.734465         0.250535
 O         2.274655        -1.103507        -0.193028
 H        -0.474864        -0.733765         0.675232
 H        -0.401301         0.823139        -0.178857
 H        -0.291429        -0.593821        -1.090060
 H         1.783173         1.589962         1.734733
 H         1.491077        -0.124969         2.142614
 H         4.095521         0.286390         2.200918
 H         5.088579         0.942070        -0.335934
 H         3.378222         2.494678        -1.153716
 H         3.450843         0.999649        -2.104875
 H         4.171428        -1.629730         0.333357
