19
Iteration:  4845
 C         0.015061        -0.148990        -0.053407
 C         1.484454         0.025208         0.055510
 C         2.032578         0.619619         1.323499
 C         3.493719         0.278436         1.295019
 C         3.991470         0.694737        -0.077927
 C         3.091720         1.511025        -1.016994
 O         1.757622         0.948147        -1.126386
 C         3.554844        -0.752793         0.254329
 O         2.221371        -1.133734        -0.228453
 H        -0.339822        -1.003708         0.587568
 H        -0.544271         0.666897         0.373924
 H        -0.330908        -0.299329        -1.042995
 H         1.835787         1.650962         1.353922
 H         1.387234         0.160879         2.160860
 H         4.139660         0.251703         2.155297
 H         5.127392         0.878004        -0.080705
 H         3.098954         2.638182        -0.729605
 H         3.493308         1.494092        -2.021715
 H         4.308370        -1.577699         0.102516
