19
Iteration:  4970
 C         0.040620        -0.199914        -0.083926
 C         1.426430         0.060084         0.101736
 C         1.917293         0.491069         1.450272
 C         3.381154         0.337156         1.251644
 C         3.959838         0.674162        -0.142690
 C         3.153729         1.226722        -1.274858
 O         1.825477         1.208317        -0.824880
 C         3.617979        -0.713374         0.220543
 O         2.292812        -1.014349        -0.301889
 H        -0.323519        -0.809663         0.648025
 H        -0.564686         0.707563        -0.237693
 H        -0.206554        -0.807567        -1.089236
 H         1.344655         1.468618         1.904548
 H         1.665418        -0.303827         2.165691
 H         4.106332         0.542343         2.029472
 H         4.969682         0.942283         0.158284
 H         3.319932         2.318835        -1.621332
 H         3.285888         0.478264        -2.109422
 H         4.355100        -1.515134         0.456601
