19
Iteration:  1323charge 0 multiplicity 1
 C         0.029413        -0.250222        -0.067180
 C         1.497188         0.076256         0.014090
 C         1.927295         0.656215         1.469965
 C         3.439540         0.405384         1.247794
 C         4.006786         0.611095        -0.216488
 C         3.130190         1.388658        -1.185806
 O         1.764068         1.025714        -0.976520
 C         3.557990        -0.775769         0.265204
 O         2.273189        -1.095026        -0.154329
 H        -0.428495        -0.740573         0.814807
 H        -0.469424         0.709635        -0.109398
 H        -0.310270        -0.839301        -0.985296
 H         1.733630         1.761234         1.525420
 H         1.493964        -0.037213         2.245363
 H         4.216084         0.487356         2.016835
 H         5.039450         1.028583        -0.194977
 H         3.267900         2.564707        -1.261629
 H         3.291423         1.011228        -2.202276
 H         4.315606        -1.553579         0.462956
