19
Iteration:   572charge 0 multiplicity 1
 C        -0.126707        -0.208804        -0.228053
 C         1.476934         0.099646         0.064910
 C         2.103957         0.733617         1.418397
 C         3.529167         0.351149         1.214864
 C         3.995369         0.616634        -0.174635
 C         3.042222         1.370288        -1.158646
 O         1.703520         0.903592        -1.045636
 C         3.629110        -0.747194         0.293041
 O         2.283823        -1.079636        -0.011956
 H        -0.441124        -1.088383         0.322713
 H        -0.509600         0.737826         0.310477
 H        -0.364480        -0.354241        -1.354461
 H         1.868402         1.734391         1.465391
 H         1.594221         0.250036         2.289520
 H         4.270329         0.450517         1.996953
 H         4.953919         1.225088        -0.270916
 H         3.177322         2.452940        -0.978468
 H         3.474265         1.094208        -2.032233
 H         4.184293        -1.652028         0.564220
