19
Iteration:  2851charge 0 multiplicity 1
 C        -0.054482        -0.125297        -0.021703
 C         1.391643         0.010836         0.025080
 C         1.978522         0.718055         1.293815
 C         3.463989         0.366102         1.243298
 C         4.077972         0.636977        -0.146668
 C         3.097048         1.521217        -0.903395
 O         1.802349         0.857165        -1.103644
 C         3.567657        -0.769020         0.202362
 O         2.293168        -1.201598        -0.216495
 H        -0.435943        -0.367608         0.944788
 H        -0.193766         0.950670        -0.272244
 H        -0.350512        -0.750038        -0.938500
 H         1.787543         1.864293         1.151255
 H         1.530730         0.270614         2.276771
 H         3.976101         0.388021         2.215854
 H         5.154709         0.852288        -0.226112
 H         2.791556         2.331759        -0.321313
 H         3.456330         1.811154        -1.907930
 H         4.295425        -1.538220         0.425247
