19
Iteration:  3314charge 0 multiplicity 1
 C        -0.038338        -0.155199        -0.107071
 C         1.462390         0.055182        -0.002761
 C         1.968254         0.592279         1.352519
 C         3.448373         0.395275         1.261211
 C         4.012391         0.647707        -0.162331
 C         3.152702         1.394457        -1.085893
 O         1.742887         1.053621        -0.934710
 C         3.640648        -0.729492         0.295099
 O         2.266498        -1.208893        -0.219999
 H        -0.412156        -0.863763         0.543948
 H        -0.474946         0.817047         0.148743
 H        -0.220204        -0.453084        -1.170059
 H         1.537328         1.605005         1.290822
 H         1.585559        -0.000051         2.173448
 H         3.908231         0.520591         2.222544
 H         5.166468         0.900798        -0.289299
 H         3.084413         2.558897        -0.911054
 H         3.482191         1.242502        -2.130581
 H         4.244041        -1.627029         0.535632
