19
Iteration:  2921
 C        -0.033897        -0.289054        -0.145844
 C         1.471884         0.066051         0.049226
 C         1.981039         0.716722         1.326478
 C         3.438991         0.384985         1.255558
 C         4.049319         0.606414        -0.146936
 C         3.162185         1.348477        -1.100918
 O         1.710800         1.146485        -0.894212
 C         3.547509        -0.770950         0.284005
 O         2.310615        -1.132087        -0.227957
 H        -0.236252        -1.253556         0.404887
 H        -0.593698         0.469756         0.352440
 H        -0.222765        -0.306050        -1.176529
 H         1.692074         1.704539         1.253642
 H         1.528038         0.187821         2.154850
 H         3.974779         0.601299         2.169476
 H         5.152157         0.657356        -0.235223
 H         3.345498         2.384332        -0.997903
 H         3.327331         0.904510        -2.050373
 H         4.093046        -1.703121         0.370367
