19
Iteration:  3288charge 0 multiplicity 1
 C         0.010826        -0.307808        -0.099497
 C         1.462573         0.137524         0.025680
 C         2.034803         0.744097         1.376025
 C         3.488124         0.282350         1.258082
 C         3.967389         0.608727        -0.146109
 C         3.140894         1.514478        -0.954183
 O         1.811229         0.927196        -1.122676
 C         3.533202        -0.747447         0.216895
 O         2.198539        -1.069261        -0.147611
 H        -0.156114        -1.333126         0.437666
 H        -0.700656         0.468090         0.277426
 H        -0.215964        -0.364111        -1.144560
 H         1.723497         1.759502         1.325401
 H         1.534485         0.206220         2.218328
 H         4.104521         0.269843         2.179357
 H         5.071211         0.791619        -0.123530
 H         2.947252         2.501007        -0.675523
 H         3.599838         1.466443        -1.962481
 H         4.089392        -1.652107         0.213821
