19
Iteration:  1182charge 0 multiplicity 1
 C         0.004161        -0.264087        -0.057460
 C         1.460495         0.058537         0.078565
 C         1.966213         0.774419         1.302442
 C         3.445481         0.390949         1.250050
 C         3.987478         0.574672        -0.137826
 C         3.051405         1.288241        -1.150230
 O         1.702077         1.156054        -0.920267
 C         3.584758        -0.817162         0.359198
 O         2.360834        -1.119935        -0.278181
 H        -0.419459        -0.928796         0.794797
 H        -0.420236         0.711517        -0.052790
 H        -0.131138        -0.761970        -1.086972
 H         1.753901         1.879815         1.358533
 H         1.620302         0.235121         2.110959
 H         4.194787         0.508244         2.044684
 H         5.081787         0.640303        -0.387144
 H         3.263197         2.329627        -1.152163
 H         3.481687         0.874349        -2.144112
 H         4.371361        -1.505978         0.502933
