19
Iteration:  4800charge 0 multiplicity 1
 C         0.086246        -0.330702        -0.088314
 C         1.529809         0.104740         0.025347
 C         1.911534         0.583117         1.418414
 C         3.424704         0.407267         1.289339
 C         4.027537         0.571335        -0.175252
 C         3.141495         1.343528        -1.194442
 O         1.767115         1.202533        -0.853722
 C         3.536892        -0.810793         0.287956
 O         2.220640        -1.032727        -0.306089
 H        -0.228855        -1.021886         0.598480
 H        -0.645143         0.471224        -0.077336
 H        -0.001836        -0.773825        -1.157328
 H         1.560335         1.583934         1.555035
 H         1.648625         0.059968         2.364666
 H         4.118151         0.632330         2.117407
 H         5.036702         0.764003        -0.248696
 H         3.349186         2.479227        -1.129385
 H         3.264082         1.099427        -2.249986
 H         4.002424        -1.800818         0.576020
