19
Iteration:  4893charge 0 multiplicity 1
 C        -0.034939        -0.254947        -0.075953
 C         1.429040         0.065281        -0.011888
 C         2.085180         0.617002         1.325509
 C         3.518589         0.309398         1.249777
 C         4.033465         0.694299        -0.123553
 C         3.125332         1.567827        -0.948646
 O         1.804293         0.947508        -1.099795
 C         3.505154        -0.781572         0.172997
 O         2.205010        -1.121700        -0.103558
 H        -0.494302        -1.019483         0.542841
 H        -0.701400         0.635971         0.092931
 H        -0.310845        -0.370399        -1.177754
 H         1.856799         1.747445         1.552571
 H         1.557391         0.168032         2.208886
 H         4.041535         0.232921         2.228540
 H         5.147515         0.657254        -0.496062
 H         2.927812         2.656211        -0.478722
 H         3.538607         1.706867        -2.018981
 H         4.155602        -1.617127         0.285558
