19
Iteration:  4722charge 0 multiplicity 1
 C        -0.007861        -0.196374        -0.084581
 C         1.449694         0.043722         0.008524
 C         1.894724         0.543779         1.361382
 C         3.481954         0.368326         1.277277
 C         4.056332         0.580949        -0.108590
 C         3.152507         1.377615        -1.183297
 O         1.699427         1.162713        -0.969673
 C         3.592196        -0.780378         0.318663
 O         2.319805        -1.063843        -0.237675
 H        -0.244852        -0.828693         0.722718
 H        -0.567956         0.695821         0.235783
 H        -0.480572        -0.760017        -0.977523
 H         1.566564         1.637229         1.499525
 H         1.624247        -0.133351         2.155947
 H         4.173622         0.318381         2.153475
 H         5.079205         0.815374        -0.014900
 H         3.203939         2.519638        -1.052727
 H         3.434466         1.135625        -2.209043
 H         4.276199        -1.604395         0.276440
