19
Iteration:  4412
 C        -0.040366        -0.174797        -0.206794
 C         1.472493         0.038006         0.030906
 C         1.910849         0.605201         1.447329
 C         3.480570         0.346100         1.291062
 C         3.988471         0.672836        -0.136006
 C         3.073847         1.420443        -1.144234
 O         1.749180         1.058832        -0.949003
 C         3.651041        -0.727738         0.234794
 O         2.309012        -1.176380        -0.166349
 H        -0.450922        -0.622829         0.713348
 H        -0.342806         0.855696        -0.341250
 H        -0.311194        -0.801078        -1.082744
 H         1.709409         1.680337         1.563644
 H         1.418456         0.076544         2.306114
 H         4.252383         0.291933         2.154281
 H         5.024269         0.722226        -0.329988
 H         3.365419         2.537320        -1.026759
 H         3.342576         1.147796        -2.154809
 H         4.423607        -1.545666         0.389366
