19
Iteration:  2979
 C        -0.065359        -0.224938        -0.171889
 C         1.407300         0.143673         0.069894
 C         2.002324         0.504727         1.535067
 C         3.456057         0.422713         1.346075
 C         4.019543         0.737579        -0.119900
 C         3.152740         1.108216        -1.249929
 O         1.757698         1.202352        -0.911707
 C         3.609270        -0.712727         0.263865
 O         2.310599        -1.069253        -0.304745
 H        -0.336639        -0.985917         0.592726
 H        -0.691247         0.704559        -0.068277
 H        -0.332838        -0.726644        -1.181505
 H         1.452691         1.490679         1.772149
 H         1.515800        -0.222644         2.156549
 H         4.093593         0.467222         2.255387
 H         5.074005         1.039221        -0.128245
 H         3.428283         2.091879        -1.713672
 H         3.377483         0.550404        -2.168820
 H         4.153809        -1.652252         0.419303
