19
Iteration:  4150charge 0 multiplicity 1
 C         0.022453        -0.196410        -0.184934
 C         1.468185         0.098927         0.029876
 C         1.814202         0.491593         1.411446
 C         3.341999         0.441287         1.374064
 C         4.011656         0.646282        -0.144466
 C         3.151130         1.121923        -1.319944
 O         1.825737         1.209291        -0.823996
 C         3.595442        -0.681194         0.304693
 O         2.359413        -1.053656        -0.248867
 H        -0.089165        -1.043040         0.516618
 H        -0.570188         0.609978         0.279161
 H        -0.331937        -0.267811        -1.181990
 H         1.468977         1.451353         1.687302
 H         1.465853        -0.257458         2.162631
 H         4.094562         0.614430         2.144737
 H         5.097047         0.906906        -0.147911
 H         3.335300         2.214829        -1.716295
 H         3.240436         0.419457        -2.149833
 H         4.276042        -1.572581         0.474317
