19
Iteration:     7charge 0 multiplicity 1
 C         0.022051        -0.298050        -0.057008
 C         1.500320         0.092698         0.007681
 C         1.978439         0.651916         1.379608
 C         3.469552         0.433034         1.257770
 C         4.037344         0.628118        -0.188475
 C         3.125333         1.358877        -1.196433
 O         1.770204         1.015325        -1.075112
 C         3.524962        -0.740985         0.341253
 O         2.222763        -1.044623        -0.116558
 H        -0.294486        -0.962436         0.762784
 H        -0.512783         0.640017         0.159537
 H        -0.359592        -0.728039        -0.994409
 H         1.724227         1.759361         1.580434
 H         1.565273         0.181840         2.288931
 H         3.989831         0.288262         2.218563
 H         5.130326         0.653498        -0.146577
 H         3.265628         2.453140        -1.121130
 H         3.524274         1.022599        -2.198204
 H         3.990861        -1.718047         0.526929
