19
Iteration:   449
 C        -0.034371        -0.242545        -0.143984
 C         1.426594        -0.041845         0.057039
 C         2.012236         0.592644         1.446999
 C         3.488268         0.592476         1.163574
 C         3.959348         0.571939        -0.232953
 C         3.198157         1.417971        -1.187471
 O         1.816857         1.072950        -1.037741
 C         3.506120        -0.730924         0.340989
 O         2.211460        -1.166094        -0.042233
 H        -0.412805        -0.874399         0.739243
 H        -0.431375         0.771712        -0.147794
 H        -0.171923        -0.844345        -1.070632
 H         1.557455         1.535481         1.852748
 H         1.809870        -0.169083         2.160297
 H         4.105847         0.879601         2.042222
 H         4.981326         0.709565        -0.526623
 H         3.465390         2.424805        -0.817651
 H         3.525362         1.353557        -2.167479
 H         4.244532        -1.589662         0.433552
