19
Iteration:  1808charge 0 multiplicity 1
 C        -0.123054        -0.239676        -0.050722
 C         1.452983         0.064300         0.011793
 C         1.944274         0.534725         1.408851
 C         3.507336         0.512634         1.158615
 C         4.081403         0.578108        -0.167579
 C         3.106057         1.223201        -1.300575
 O         1.770426         1.160180        -0.873471
 C         3.623930        -0.723545         0.376601
 O         2.277295        -1.036260        -0.194866
 H        -0.370705        -0.744203         0.825481
 H        -0.618036         0.720203        -0.092494
 H        -0.407513        -0.998833        -0.836720
 H         1.531100         1.563279         1.523928
 H         1.689654        -0.203621         2.246364
 H         4.170526         0.669326         2.084927
 H         5.143600         0.853681        -0.290379
 H         3.278032         2.312900        -1.326196
 H         3.279756         0.690631        -2.309398
 H         4.233403        -1.609667         0.573551
