19
Iteration:  1740
 C        -0.050974        -0.240792        -0.048822
 C         1.434528         0.079011         0.040258
 C         1.927272         0.710521         1.360214
 C         3.503357         0.543255         1.215524
 C         4.113100         0.563661        -0.184229
 C         3.118079         1.289878        -1.146026
 O         1.698461         1.071958        -0.959741
 C         3.585986        -0.793236         0.278542
 O         2.275708        -1.119140        -0.167202
 H         0.054955        -1.227670         0.429253
 H        -0.724123         0.431780         0.362090
 H        -0.271629        -0.417709        -1.100535
 H         1.619147         1.777306         1.536938
 H         1.688369         0.156531         2.254341
 H         4.193024         0.476740         1.985370
 H         5.150986         0.802595        -0.357661
 H         3.416754         2.321629        -1.011812
 H         3.333280         0.936481        -2.209072
 H         4.178749        -1.701631         0.505299
