19
Iteration:  2068
 C        -0.048185        -0.202027         0.013787
 C         1.446148         0.085282         0.047705
 C         2.006960         0.793982         1.276845
 C         3.503699         0.478725         1.207431
 C         4.023475         0.529764        -0.290274
 C         3.093209         1.468746        -0.943904
 O         1.818647         0.846366        -1.084206
 C         3.542108        -0.776666         0.265600
 O         2.231807        -1.168767        -0.133451
 H        -0.266531        -1.090438         0.572749
 H        -0.678132         0.670130         0.394459
 H        -0.379877        -0.328976        -1.022635
 H         1.620831         1.826138         1.147731
 H         1.600596         0.375364         2.168071
 H         4.216576         0.538490         1.984647
 H         5.118392         0.730328        -0.443856
 H         3.230474         2.315169        -0.241369
 H         3.403771         1.778832        -1.943130
 H         4.324373        -1.577515         0.481910
