19
Iteration:  1270
 C        -0.059335        -0.199305        -0.056621
 C         1.465697         0.017049         0.068256
 C         2.004905         0.785788         1.277095
 C         3.469175         0.366433         1.279697
 C         4.034855         0.564034        -0.189553
 C         3.114686         1.485661        -1.006313
 O         1.735380         0.938786        -1.055759
 C         3.570634        -0.777258         0.266953
 O         2.293786        -1.171325        -0.175149
 H        -0.277759        -1.021383         0.680163
 H        -0.655192         0.673955         0.249688
 H        -0.385264        -0.651817        -1.067723
 H         1.926209         1.911125         1.027671
 H         1.418924         0.655815         2.147841
 H         4.110418         0.537565         2.155056
 H         5.134588         0.711938        -0.343285
 H         3.179535         2.439885        -0.526671
 H         3.224560         1.604399        -2.102779
 H         4.456715        -1.436870         0.346272
