19
Iteration:  3791charge 0 multiplicity 1
 C        -0.069967        -0.152593        -0.225296
 C         1.447842         0.043219         0.041388
 C         1.956464         0.538520         1.403828
 C         3.480348         0.410265         1.324888
 C         4.080225         0.671384        -0.104583
 C         3.115020         1.190846        -1.206135
 O         1.733071         1.118274        -0.899740
 C         3.595913        -0.671718         0.305453
 O         2.313058        -1.076628        -0.240137
 H        -0.534560        -1.011713         0.326319
 H        -0.599028         0.692889         0.239593
 H        -0.218365        -0.184939        -1.286697
 H         1.420019         1.387326         1.719113
 H         1.729743        -0.226259         2.187395
 H         3.950683         0.440184         2.299946
 H         5.138562         1.025097        -0.183593
 H         3.506375         2.260466        -1.389346
 H         3.206084         0.783163        -2.219487
 H         4.201660        -1.561943         0.619289
