19
Iteration:  4985charge 0 multiplicity 1
 C         0.060263        -0.183479        -0.198220
 C         1.512884         0.119304         0.064020
 C         1.930230         0.446977         1.550280
 C         3.434535         0.324962         1.320929
 C         4.003363         0.732729        -0.123091
 C         3.079835         1.203415        -1.303905
 O         1.720565         1.191995        -0.860751
 C         3.581177        -0.711940         0.248155
 O         2.302792        -1.051989        -0.249573
 H        -0.456130        -0.762240         0.669220
 H        -0.464015         0.770455        -0.167255
 H         0.005324        -0.539329        -1.255055
 H         1.668588         1.480801         1.781783
 H         1.463684        -0.220539         2.295402
 H         4.120984         0.272682         2.173788
 H         5.027206         1.018494        -0.292150
 H         3.391042         2.280593        -1.570352
 H         3.238783         0.510820        -2.212398
 H         4.209571        -1.601514         0.198512
