19
Iteration:  3585
 C         0.088967        -0.268962        -0.159463
 C         1.467252         0.091568         0.085188
 C         1.943411         0.485116         1.467815
 C         3.406163         0.431265         1.319784
 C         3.963677         0.672385        -0.048711
 C         3.219155         1.146509        -1.317812
 O         1.753324         1.214881        -0.951328
 C         3.514357        -0.715735         0.318285
 O         2.261938        -1.002962        -0.281891
 H        -0.250409        -1.054223         0.562457
 H        -0.415510         0.671231         0.166188
 H        -0.206149        -0.372037        -1.217759
 H         1.603256         1.467948         1.833772
 H         1.515885        -0.255051         2.231765
 H         4.007050         0.523509         2.196611
 H         5.030867         1.049892         0.047732
 H         3.389562         2.144712        -1.712193
 H         3.506215         0.480408        -2.183377
 H         4.144475        -1.517334         0.373033
