19
Iteration:  3806charge 0 multiplicity 1
 C         0.002810        -0.136889        -0.136017
 C         1.447961         0.127118         0.050181
 C         1.891407         0.486268         1.450474
 C         3.395101         0.430823         1.240827
 C         4.006420         0.668419        -0.106567
 C         3.215634         1.344984        -1.182828
 O         1.756529         1.018953        -0.962595
 C         3.594181        -0.748152         0.278427
 O         2.307274        -1.083812        -0.184464
 H        -0.427181        -1.058149         0.351199
 H        -0.581743         0.790995         0.075793
 H        -0.139763        -0.393134        -1.216009
 H         1.636501         1.587922         1.700656
 H         1.476210        -0.280339         2.142612
 H         4.144714         0.539000         2.024875
 H         5.025663         0.685042        -0.145992
 H         3.149848         2.441016        -1.278905
 H         3.578719         0.845158        -2.071828
 H         4.281255        -1.562438         0.189338
