19
Iteration:  3278
 C         0.015910        -0.318185        -0.082718
 C         1.479210         0.193012        -0.018009
 C         2.065771         0.716164         1.285315
 C         3.497482         0.285830         1.292809
 C         4.039727         0.656830        -0.084665
 C         3.103394         1.515233        -0.955035
 O         1.805820         0.930876        -1.156383
 C         3.483376        -0.788300         0.224566
 O         2.129368        -1.096972        -0.119050
 H         0.016158        -1.362227         0.372519
 H        -0.821812         0.252058         0.334038
 H        -0.180668        -0.502299        -1.113027
 H         2.084429         1.708691         1.522474
 H         1.591454         0.250776         2.159177
 H         4.064245         0.234800         2.233256
 H         5.105311         0.862449        -0.471113
 H         2.996172         2.535113        -0.465861
 H         3.568454         1.722024        -1.946444
 H         4.196768        -1.548140         0.376898
