19
Iteration:  2672
 C        -0.028117        -0.220558        -0.081475
 C         1.437206         0.101280        -0.046184
 C         2.060629         0.778073         1.269801
 C         3.464926         0.234804         1.312921
 C         4.066292         0.592009        -0.173908
 C         3.050638         1.560397        -0.911175
 O         1.759566         0.930840        -1.121471
 C         3.529400        -0.772911         0.211420
 O         2.282597        -1.196314        -0.108045
 H        -0.372240        -0.528945         0.919904
 H        -0.432317         0.791950        -0.256497
 H        -0.305604        -0.925912        -0.839697
 H         1.936627         1.890787         1.228873
 H         1.475542         0.560001         2.172713
 H         4.078943         0.152003         2.250604
 H         5.114762         0.844574        -0.326220
 H         3.021356         2.476077        -0.292352
 H         3.322742         1.860031        -1.905731
 H         4.320684        -1.538919         0.285060
