19
Iteration:   900
 C         0.048642        -0.200269        -0.092584
 C         1.446834         0.101645         0.005105
 C         1.983152         0.648444         1.468248
 C         3.506563         0.465356         1.247479
 C         3.979381         0.585155        -0.180342
 C         3.088505         1.279662        -1.236564
 O         1.769124         0.974873        -0.981194
 C         3.538030        -0.727262         0.300108
 O         2.245413        -1.041428        -0.141685
 H        -0.199086        -1.102877         0.544615
 H        -0.456018         0.645651         0.306796
 H        -0.337784        -0.410005        -1.082464
 H         1.663845         1.773848         1.681535
 H         1.555913        -0.062644         2.227013
 H         4.136346         0.512878         2.137516
 H         5.075705         0.752138        -0.156711
 H         3.221452         2.370224        -1.256838
 H         3.490039         0.893666        -2.252592
 H         4.327869        -1.514481         0.228633
