19
Iteration:  4572
 C         0.093832        -0.391690        -0.113471
 C         1.441038         0.156484         0.080140
 C         1.907980         0.693641         1.440781
 C         3.389119         0.275972         1.281057
 C         4.051554         0.604046        -0.081201
 C         3.174308         1.228393        -1.225678
 O         1.730830         1.232438        -0.807817
 C         3.551086        -0.738893         0.236788
 O         2.293831        -0.986577        -0.382709
 H        -0.179188        -0.970142         0.720137
 H        -0.656741         0.393338        -0.271015
 H        -0.106226        -1.043891        -1.046148
 H         1.658091         1.696538         1.546525
 H         1.479240         0.176299         2.362101
 H         4.075460         0.552807         2.144094
 H         5.101082         0.706876        -0.027509
 H         3.427031         2.246226        -1.515427
 H         3.132163         0.641212        -2.176286
 H         4.174436        -1.629869         0.440190
