19
Iteration:  2395
 C        -0.019145        -0.177031        -0.043248
 C         1.447644         0.004038         0.077578
 C         1.900441         0.430802         1.440148
 C         3.423543         0.521025         1.228566
 C         4.033278         0.656214        -0.169485
 C         3.192999         1.225503        -1.361037
 O         1.844689         1.131133        -0.908466
 C         3.530410        -0.631996         0.308948
 O         2.280082        -1.065530        -0.206347
 H        -0.619998        -0.143725         0.964426
 H        -0.548362         0.641830        -0.598855
 H        -0.231025        -1.070761        -0.576907
 H         1.418558         1.315341         1.880533
 H         1.872201        -0.414305         2.232264
 H         4.023552         0.651213         2.178159
 H         5.094824         0.911071        -0.134328
 H         3.413857         2.252169        -1.405079
 H         3.260113         0.715304        -2.310293
 H         4.021144        -1.617829         0.376770
