19
Iteration:  2688
 C         0.017563        -0.258538        -0.022711
 C         1.489024         0.012230         0.043514
 C         1.993558         0.801412         1.305056
 C         3.424700         0.313337         1.281195
 C         3.998591         0.571385        -0.199046
 C         3.137175         1.498945        -0.963657
 O         1.751386         1.018691        -1.075950
 C         3.591147        -0.795632         0.298407
 O         2.233984        -1.134548        -0.249030
 H        -0.311900        -1.004947         0.754987
 H        -0.643095         0.614871        -0.033402
 H        -0.210100        -0.714818        -1.038743
 H         1.976716         1.862478         0.928197
 H         1.390968         0.569222         2.239110
 H         4.071082         0.502181         2.112765
 H         5.093630         0.610044        -0.254469
 H         3.032703         2.494040        -0.275740
 H         3.623841         1.512933        -1.981708
 H         4.194671        -1.690706         0.378249
