19
Iteration:  3744
 C         0.044036        -0.404025        -0.145171
 C         1.459231         0.177183        -0.020677
 C         1.883980         0.613374         1.486432
 C         3.449686         0.362870         1.267835
 C         4.053557         0.616617        -0.112793
 C         3.194200         1.210095        -1.212947
 O         1.790271         1.232468        -0.887587
 C         3.534695        -0.751953         0.301392
 O         2.200504        -0.956911        -0.257222
 H        -0.007267        -1.148780         0.524836
 H        -0.736854         0.277004         0.156501
 H         0.011123        -0.747426        -1.217778
 H         1.610186         1.621812         1.705602
 H         1.425760         0.060282         2.275569
 H         4.066699         0.215873         2.157707
 H         5.218980         0.782793        -0.238714
 H         3.344853         2.179496        -1.573752
 H         3.388449         0.651606        -2.161018
 H         4.196544        -1.549450         0.469609
