19
Iteration:   835
 C         0.048946        -0.264488        -0.019388
 C         1.476007         0.185430         0.102166
 C         2.050008         0.784915         1.411215
 C         3.499802         0.312375         1.217828
 C         4.002307         0.678879        -0.163971
 C         3.051038         1.435132        -1.031114
 O         1.769396         0.852142        -1.242660
 C         3.511226        -0.783177         0.320757
 O         2.166641        -1.108793        -0.128129
 H        -0.433204        -0.840456         0.859015
 H        -0.631133         0.567191        -0.269422
 H         0.080064        -0.824880        -0.959322
 H         2.229898         1.804135         1.491819
 H         1.720639         0.551700         2.404537
 H         4.376169         0.131186         1.876423
 H         5.071457         0.745856        -0.252709
 H         3.122240         2.495485        -0.836015
 H         3.358710         1.486029        -2.159306
 H         4.254827        -1.579914         0.272491
