19
Iteration:  2059charge 0 multiplicity 1
 C        -0.066427        -0.136652        -0.000457
 C         1.463388         0.000696         0.022039
 C         1.966425         0.780146         1.311005
 C         3.499017         0.468147         1.158333
 C         3.992364         0.512735        -0.268655
 C         3.137810         1.491296        -0.974000
 O         1.808330         0.852812        -1.035530
 C         3.552272        -0.743782         0.286689
 O         2.290641        -1.176242        -0.161266
 H        -0.363317        -0.962790         0.713453
 H        -0.530309         0.803164         0.510086
 H        -0.346942        -0.479715        -0.947229
 H         1.679285         1.798286         1.273860
 H         1.567757         0.335327         2.172298
 H         4.092577         0.760568         1.972859
 H         5.110315         0.674402        -0.296018
 H         3.052233         2.572205        -0.494950
 H         3.345051         1.557568        -1.970855
 H         4.082588        -1.742938         0.337240
