19
Iteration:  4246charge 0 multiplicity 1
 C        -0.137479        -0.199366        -0.057015
 C         1.446334         0.059988        -0.050095
 C         1.995653         0.771415         1.253006
 C         3.491882         0.327036         1.314147
 C         4.056237         0.628079        -0.111318
 C         3.112116         1.473080        -0.841514
 O         1.750467         0.910395        -1.134514
 C         3.577659        -0.762256         0.187765
 O         2.330022        -1.154631        -0.172518
 H        -0.410156        -0.792148         0.898360
 H        -0.589232         0.819345        -0.335303
 H        -0.359042        -0.863471        -0.906552
 H         1.742869         1.833171         1.241184
 H         1.487714         0.316455         2.183689
 H         3.918385         0.458796         2.290225
 H         5.160194         0.742348        -0.335852
 H         3.159061         2.410421        -0.316030
 H         3.584447         1.597769        -1.869244
 H         4.317534        -1.574645         0.263222
