19
Iteration:    48
 C         0.028939        -0.269595        -0.034955
 C         1.447947         0.107356         0.017186
 C         1.945890         0.714443         1.331363
 C         3.392342         0.456365         1.250361
 C         4.015745         0.622942        -0.078574
 C         3.142498         1.226023        -1.185462
 O         1.778397         1.036054        -0.937812
 C         3.568860        -0.767841         0.227269
 O         2.283015        -1.058341        -0.200419
 H        -0.142425        -1.125275         0.796626
 H        -0.483171         0.681866         0.296511
 H        -0.355882        -0.655746        -1.031611
 H         1.707593         1.726147         1.301673
 H         1.478058         0.283598         2.267508
 H         4.041333         0.574932         2.159013
 H         5.073028         0.952754        -0.248814
 H         3.330117         2.342989        -1.340185
 H         3.374316         0.731145        -2.103308
 H         4.293760        -1.605526         0.336217
