19
Iteration:  1999
 C        -0.006475        -0.298722        -0.048688
 C         1.453038         0.095493         0.131394
 C         1.963856         0.636421         1.480024
 C         3.459824         0.425887         1.291530
 C         4.040141         0.598958        -0.207090
 C         3.174810         1.137546        -1.301992
 O         1.735668         1.185350        -0.896278
 C         3.540105        -0.722114         0.285998
 O         2.252720        -0.968231        -0.301122
 H        -0.429514        -0.829214         0.827435
 H        -0.670736         0.404399        -0.468805
 H         0.055173        -1.089488        -0.856677
 H         1.728811         1.729681         1.677875
 H         1.626411         0.004825         2.369474
 H         4.265035         0.353176         2.070422
 H         5.035717         0.968234        -0.223398
 H         3.352487         2.231761        -1.517289
 H         3.413589         0.494503        -2.274756
 H         4.108925        -1.584621         0.529455
