19
Iteration:  4952charge 0 multiplicity 1
 C        -0.086702        -0.270257        -0.062269
 C         1.468250         0.102060        -0.046249
 C         1.922789         0.486306         1.429261
 C         3.434534         0.471014         1.276549
 C         4.107409         0.661196        -0.134088
 C         3.200202         1.209383        -1.170767
 O         1.746457         1.243384        -0.820873
 C         3.561501        -0.755412         0.277343
 O         2.303684        -1.049680        -0.325643
 H        -0.350571        -0.958844         0.801370
 H        -0.647292         0.641300        -0.117365
 H        -0.349294        -0.998136        -0.914657
 H         1.557231         1.526796         1.579373
 H         1.580630        -0.198405         2.174757
 H         4.033085         0.436709         2.176415
 H         5.081756         0.828770        -0.374332
 H         3.438195         2.334648        -1.276507
 H         3.221141         0.773546        -2.194020
 H         4.147139        -1.698726         0.202598
