19
Iteration:  2372
 C        -0.106194        -0.230436        -0.090120
 C         1.447244         0.114080         0.063120
 C         1.914192         0.610809         1.376805
 C         3.493267         0.425238         1.225555
 C         4.025954         0.672752        -0.123924
 C         3.136887         1.072108        -1.223135
 O         1.732394         1.200910        -0.824222
 C         3.680221        -0.702136         0.281804
 O         2.361092        -1.075872        -0.308246
 H        -0.579778        -0.414948         0.973898
 H        -0.782606         0.670806        -0.332039
 H        -0.366505        -1.030899        -0.820133
 H         1.486058         1.627697         1.549407
 H         1.451949        -0.109224         2.151291
 H         4.159350         0.597085         2.148345
 H         5.100689         0.936099        -0.218611
 H         3.394780         2.072888        -1.531755
 H         3.133468         0.317505        -1.981261
 H         4.222150        -1.582010         0.606583
