19
Iteration:  2310charge 0 multiplicity 1
 C        -0.084349        -0.274685        -0.069921
 C         1.424586         0.016761         0.040349
 C         1.942341         0.689241         1.282805
 C         3.531657         0.452644         1.194670
 C         4.112399         0.582008        -0.224839
 C         3.204392         1.485651        -1.115665
 O         1.764294         0.991496        -1.009914
 C         3.526716        -0.765645         0.310303
 O         2.192369        -1.118982        -0.079004
 H        -0.171457        -1.280006         0.385459
 H        -0.488609         0.468751         0.577890
 H        -0.541935        -0.228238        -0.975564
 H         1.652420         1.707131         1.453729
 H         1.714217         0.098834         2.188666
 H         4.276261         0.664366         2.040351
 H         5.195954         0.579011        -0.369349
 H         3.452426         2.478127        -0.739212
 H         3.406698         1.611524        -2.236191
 H         4.106913        -1.670030         0.629747
