19
Iteration:  1405
 C        -0.061074        -0.349339        -0.067453
 C         1.410784         0.099795        -0.055105
 C         2.015649         0.645417         1.434273
 C         3.483231         0.465784         1.213995
 C         4.051411         0.612828        -0.126326
 C         3.157081         1.222870        -1.218226
 O         1.738709         1.164241        -0.953755
 C         3.564294        -0.729640         0.285272
 O         2.285531        -1.042369        -0.153015
 H        -0.183813        -1.260467         0.604640
 H        -0.781424         0.473157         0.265636
 H        -0.419192        -0.727511        -1.030250
 H         1.685910         1.638869         1.567948
 H         1.571461         0.146644         2.301685
 H         3.974141         0.439876         2.220582
 H         5.125501         0.779253        -0.394883
 H         3.472804         2.239390        -1.102349
 H         3.279598         0.879683        -2.304010
 H         4.238579        -1.536803         0.529250
