19
Iteration:   889
 C        -0.047692        -0.180907         0.003019
 C         1.491035         0.141981         0.051627
 C         1.969285         0.658339         1.393709
 C         3.421955         0.511415         1.231831
 C         3.994388         0.598976        -0.170829
 C         3.196681         1.355031        -1.222581
 O         1.750733         1.023698        -1.027771
 C         3.561650        -0.777911         0.297925
 O         2.285331        -1.222102        -0.173387
 H        -0.168856        -1.052527         0.692659
 H        -0.688914         0.641359         0.282504
 H        -0.240135        -0.469843        -1.015223
 H         1.534642         1.718574         1.643723
 H         1.675621        -0.019549         2.231485
 H         4.151546         0.619599         2.041978
 H         5.079343         0.755833        -0.277242
 H         3.319171         2.428140        -1.049029
 H         3.261894         1.115645        -2.321837
 H         4.257578        -1.623307         0.518159
