19
Iteration:  4232charge 0 multiplicity 1
 C         0.021753        -0.298749        -0.074895
 C         1.437899         0.114863         0.000868
 C         1.927453         0.682265         1.289816
 C         3.452956         0.387767         1.244508
 C         4.059602         0.588702        -0.126841
 C         3.167472         1.498145        -0.994131
 O         1.845825         0.989093        -1.050675
 C         3.513014        -0.746622         0.296023
 O         2.206002        -1.142034        -0.207616
 H        -0.330690        -0.717501         0.950872
 H        -0.667019         0.560616        -0.135284
 H        -0.182667        -1.053913        -0.866646
 H         1.683581         1.791957         1.403115
 H         1.485224         0.143322         2.135985
 H         4.103818         0.308447         2.140731
 H         5.225094         0.684412        -0.250466
 H         3.020273         2.601950        -0.604980
 H         3.487844         1.628708        -2.074250
 H         4.191467        -1.595843         0.351476
