19
Iteration:  2579
 C         0.047187        -0.418170        -0.096483
 C         1.469877         0.209936         0.115170
 C         1.897744         0.672310         1.456732
 C         3.392490         0.319142         1.327952
 C         4.061417         0.604580        -0.209157
 C         3.174240         1.161554        -1.233620
 O         1.797517         1.213330        -0.884408
 C         3.506025        -0.733796         0.260587
 O         2.282332        -0.933744        -0.326145
 H        -0.104349        -1.372946         0.548927
 H        -0.749884         0.258497         0.237995
 H        -0.018239        -0.667771        -1.139407
 H         1.741004         1.748845         1.565551
 H         1.448357         0.237530         2.363738
 H         4.007411         0.406683         2.177582
 H         5.072553         0.881163        -0.110415
 H         3.348856         2.221838        -1.484412
 H         3.170636         0.361057        -2.088763
 H         4.027185        -1.693101         0.390822
