19
Iteration:  1840charge 0 multiplicity 1
 C         0.032804        -0.197621        -0.121114
 C         1.514526         0.094500         0.118029
 C         1.991049         0.659904         1.406661
 C         3.524405         0.365098         1.144265
 C         3.946898         0.630986        -0.160416
 C         3.055818         1.412498        -1.142794
 O         1.736675         0.968168        -1.005800
 C         3.548427        -0.787086         0.212870
 O         2.232580        -1.116131        -0.018965
 H        -0.429922        -0.648832         0.685480
 H        -0.429689         0.709231        -0.458686
 H         0.002029        -0.816239        -1.066746
 H         1.824103         1.758713         1.358608
 H         1.641567         0.316569         2.360242
 H         4.331854         0.523954         1.939306
 H         5.015781         0.828746        -0.295923
 H         3.202388         2.482204        -0.998100
 H         3.428041         1.200341        -2.215445
 H         4.338968        -1.508492         0.154220
