19
Iteration:   837charge 0 multiplicity 1
 C         0.051339        -0.256004        -0.000102
 C         1.470600         0.185817         0.103160
 C         2.034349         0.794187         1.400833
 C         3.510880         0.317338         1.218520
 C         3.994191         0.659197        -0.152445
 C         3.059146         1.420217        -1.019207
 O         1.775491         0.852090        -1.238704
 C         3.494790        -0.772431         0.300222
 O         2.174105        -1.116436        -0.147940
 H        -0.397155        -0.848523         0.954708
 H        -0.595587         0.567557        -0.261148
 H         0.144045        -0.814039        -1.008932
 H         2.201373         1.752166         1.491195
 H         1.680208         0.581150         2.379758
 H         4.357025         0.214227         1.923381
 H         5.117776         0.763528        -0.269194
 H         3.091290         2.533089        -0.855875
 H         3.316588         1.467393        -2.126982
 H         4.305321        -1.549209         0.291529
