19
Iteration:   624charge 0 multiplicity 1
 C        -0.062124        -0.274371         0.124024
 C         1.458840         0.064846        -0.050508
 C         1.911064         0.750932         1.300493
 C         3.410822         0.439132         1.148834
 C         4.099421         0.526866        -0.158227
 C         3.191959         1.458436        -1.046843
 O         1.774165         0.991191        -1.168374
 C         3.603323        -0.791719         0.297412
 O         2.237608        -1.156726        -0.129205
 H        -0.098058        -0.792568         1.079939
 H        -0.752088         0.598422         0.202533
 H        -0.583979        -1.027411        -0.556571
 H         1.748615         1.909265         1.343410
 H         1.500267         0.426961         2.183984
 H         4.086164         0.733081         1.951125
 H         5.198713         0.873094        -0.144003
 H         3.227301         2.372653        -0.426759
 H         3.699447         1.750235        -2.054340
 H         4.231235        -1.669082         0.335148
