19
Iteration:   707charge 0 multiplicity 1
 C         0.043498        -0.260546        -0.089199
 C         1.490580         0.094800         0.027884
 C         1.926958         0.636836         1.395219
 C         3.466564         0.604628         1.151744
 C         4.080589         0.553100        -0.202308
 C         3.149149         1.175574        -1.235397
 O         1.708669         1.171910        -0.863816
 C         3.549312        -0.804859         0.353630
 O         2.237420        -1.104011        -0.181281
 H        -0.343224        -1.175670         0.513231
 H        -0.615345         0.573632         0.132210
 H        -0.194690        -0.595943        -1.101448
 H         1.639042         1.696457         1.536129
 H         1.721745        -0.076984         2.275008
 H         4.182491         0.844437         1.951904
 H         5.090021         0.935514        -0.197503
 H         3.354456         2.258003        -1.331906
 H         3.232054         0.647280        -2.144747
 H         4.121416        -1.557033         0.819263
