19
Iteration:  4368charge 0 multiplicity 1
 C        -0.088212        -0.325322        -0.120061
 C         1.442907         0.161058        -0.004560
 C         1.940495         0.502508         1.478313
 C         3.387619         0.385668         1.363586
 C         4.079868         0.662610        -0.147240
 C         3.189892         1.153058        -1.257868
 O         1.762484         1.236282        -0.912571
 C         3.571914        -0.653408         0.276689
 O         2.329142        -0.999391        -0.266073
 H        -0.188930        -1.111576         0.615668
 H        -0.772034         0.514867         0.113653
 H        -0.282304        -0.808684        -1.125417
 H         1.524130         1.469859         1.700460
 H         1.573483        -0.243021         2.265550
 H         4.102244         0.356701         2.248598
 H         5.044356         0.945432        -0.178515
 H         3.448080         2.228411        -1.606551
 H         3.465338         0.480948        -2.053046
 H         4.134146        -1.614888         0.359854
