19
Iteration:  4950
 C        -0.076875        -0.273425        -0.050525
 C         1.454589         0.082958        -0.058896
 C         1.932975         0.503624         1.418133
 C         3.451954         0.459336         1.292480
 C         4.123420         0.650458        -0.147756
 C         3.195407         1.220464        -1.156835
 O         1.732860         1.248349        -0.832618
 C         3.554462        -0.754969         0.293193
 O         2.301403        -1.047224        -0.325761
 H        -0.301026        -0.932556         0.729116
 H        -0.696884         0.622183        -0.150973
 H        -0.408296        -1.031596        -0.962381
 H         1.469613         1.622320         1.607919
 H         1.611350        -0.159952         2.174008
 H         4.063873         0.350381         2.179353
 H         5.095442         0.800119        -0.345531
 H         3.407155         2.412744        -1.225435
 H         3.214313         0.767845        -2.212875
 H         4.175479        -1.692821         0.214243
