19
Iteration:  1542charge 0 multiplicity 1
 C         0.048019        -0.356800        -0.063590
 C         1.454109         0.081095         0.109225
 C         1.925439         0.628061         1.466631
 C         3.441413         0.466775         1.223023
 C         4.089566         0.634177        -0.189025
 C         3.153544         1.253926        -1.262123
 O         1.748548         1.090172        -0.991321
 C         3.545518        -0.707348         0.274340
 O         2.207090        -1.009570        -0.199060
 H        -0.230337        -1.045821         0.709317
 H        -0.450241         0.613533         0.242054
 H        -0.158288        -0.687522        -1.046805
 H         1.654599         1.745087         1.668004
 H         1.684123         0.071181         2.396245
 H         4.018090         0.464902         2.193365
 H         5.161990         0.806732        -0.022045
 H         3.428425         2.284278        -1.392890
 H         3.370142         0.715646        -2.232437
 H         4.142251        -1.624139         0.373736
