19
Iteration:  3913charge 0 multiplicity 1
 C        -0.047319        -0.153743        -0.180944
 C         1.462906         0.050009         0.085803
 C         1.929930         0.536621         1.473399
 C         3.423653         0.373252         1.275446
 C         4.028553         0.667848        -0.133963
 C         3.188473         1.399644        -1.174838
 O         1.753752         1.020962        -1.040895
 C         3.608404        -0.702295         0.257511
 O         2.281945        -1.115749        -0.165072
 H        -0.507017        -0.834368         0.617222
 H        -0.502390         0.836679        -0.079579
 H        -0.280411        -0.371676        -1.201134
 H         1.458812         1.464545         1.697149
 H         1.721572        -0.136434         2.322552
 H         4.094053         0.352300         2.147196
 H         5.036669         0.867572        -0.221442
 H         3.245492         2.514047        -1.015840
 H         3.668999         1.001416        -2.069660
 H         4.164980        -1.609227         0.415963
