19
Iteration:  4536charge 0 multiplicity 1
 C        -0.008052        -0.257625        -0.197854
 C         1.445356         0.118245         0.043447
 C         1.938516         0.483908         1.421146
 C         3.477002         0.409543         1.276363
 C         4.073537         0.641418        -0.162165
 C         3.151760         1.335683        -1.231052
 O         1.701557         1.186206        -0.877043
 C         3.574372        -0.710557         0.308538
 O         2.242513        -1.117628        -0.199160
 H        -0.337880        -1.025999         0.469110
 H        -0.503491         0.673677         0.133343
 H        -0.088649        -0.470660        -1.245361
 H         1.571422         1.495218         1.807888
 H         1.680381        -0.338869         2.029231
 H         4.059806         0.540910         2.133844
 H         5.287014         0.640539        -0.059352
 H         3.316110         2.420273        -1.404955
 H         3.428839         0.676632        -2.078734
 H         4.451813        -1.324037         0.483430
