19
Iteration:  1172
 C        -0.024197        -0.294302        -0.095241
 C         1.437424         0.035571         0.037204
 C         1.996872         0.728790         1.362472
 C         3.479687         0.398097         1.245772
 C         4.003984         0.518367        -0.139894
 C         3.110127         1.256692        -1.133933
 O         1.647075         1.189461        -0.949267
 C         3.722167        -0.786340         0.336779
 O         2.312700        -1.037594        -0.242486
 H        -0.490109        -0.825423         0.791673
 H        -0.561295         0.612579        -0.089133
 H        -0.372325        -0.838581        -1.036513
 H         1.681123         1.832495         1.293929
 H         1.611827         0.436063         2.260021
 H         3.990636         0.530357         2.211366
 H         5.081402         0.871056        -0.146399
 H         3.363153         2.305087        -1.243733
 H         3.223451         0.707858        -2.164277
 H         4.211518        -1.714722         0.381844
