19
Iteration:  3644
 C         0.035407        -0.228341        -0.107155
 C         1.450798         0.104312         0.060728
 C         1.969781         0.727353         1.323924
 C         3.458886         0.354382         1.295716
 C         3.990838         0.591374        -0.168892
 C         3.105611         1.547774        -0.940903
 O         1.852495         0.947329        -1.156837
 C         3.512476        -0.821753         0.230287
 O         2.220490        -1.167642        -0.137126
 H        -0.200616        -1.042441         0.552472
 H        -0.514517         0.646938         0.186556
 H        -0.173033        -0.572042        -1.085399
 H         1.837038         1.822310         1.257708
 H         1.469937         0.317759         2.132451
 H         4.154695         0.385525         2.183800
 H         5.020481         0.749952        -0.292481
 H         2.973944         2.544055        -0.331845
 H         3.552753         1.710720        -1.938620
 H         4.231896        -1.721912         0.256774
