19
Iteration:  1364charge 0 multiplicity 1
 C        -0.046042        -0.243026        -0.137014
 C         1.486376         0.091146         0.089105
 C         1.948044         0.642055         1.452464
 C         3.435783         0.392370         1.273297
 C         3.977874         0.667478        -0.149796
 C         3.125568         1.148705        -1.282844
 O         1.709100         1.121895        -0.908035
 C         3.622494        -0.701048         0.287428
 O         2.334292        -1.027513        -0.238428
 H        -0.140731        -0.988316         0.680487
 H        -0.531411         0.644127         0.143840
 H        -0.260736        -0.662625        -1.133883
 H         1.638517         1.653034         1.622640
 H         1.684202         0.051412         2.440626
 H         4.257721         0.411041         2.012646
 H         5.059019         0.944881        -0.085048
 H         3.290561         2.203942        -1.497986
 H         3.368482         0.524127        -2.186485
 H         4.143304        -1.630231         0.502506
