19
Iteration:   627charge 0 multiplicity 1
 C        -0.071004        -0.269834         0.114563
 C         1.445300         0.064753        -0.014793
 C         1.916525         0.749683         1.297293
 C         3.434821         0.449027         1.181116
 C         4.103578         0.513511        -0.160520
 C         3.229326         1.457239        -1.051821
 O         1.735163         1.003719        -1.191476
 C         3.592693        -0.787131         0.289303
 O         2.262672        -1.164779        -0.141477
 H        -0.122755        -0.715238         1.107484
 H        -0.869812         0.596238         0.190726
 H        -0.638025        -1.008887        -0.530402
 H         1.713046         1.762694         1.247809
 H         1.448834         0.374785         2.218951
 H         4.062829         0.773767         2.003103
 H         5.182604         0.801221        -0.155477
 H         3.201441         2.412407        -0.477695
 H         3.689436         1.692272        -1.937258
 H         4.359264        -1.622896         0.332608
