19
Iteration:  3030charge 0 multiplicity 1
 C        -0.017918        -0.355668        -0.140482
 C         1.396264         0.124136         0.025987
 C         2.042180         0.663855         1.408518
 C         3.509522         0.381630         1.211128
 C         3.993343         0.641602        -0.142284
 C         3.195367         1.506778        -1.039188
 O         1.798737         0.991355        -1.067625
 C         3.513776        -0.781831         0.285963
 O         2.199176        -1.072862        -0.150010
 H        -0.410912        -0.822997         0.807430
 H        -0.674823         0.528206        -0.157736
 H        -0.360080        -0.936323        -0.983160
 H         1.772419         1.713375         1.481774
 H         1.618522         0.018554         2.233289
 H         4.158587         0.268887         2.113595
 H         5.152287         0.598306        -0.196198
 H         3.196147         2.586456        -0.693776
 H         3.517921         1.390366        -2.113328
 H         4.278435        -1.580009         0.219636
