19
Iteration:  4395charge 0 multiplicity 1
 C         0.041652        -0.145604        -0.137082
 C         1.495516         0.038798         0.048903
 C         1.947153         0.457000         1.414201
 C         3.363565         0.476115         1.240418
 C         4.000944         0.656789        -0.192850
 C         3.153250         1.311520        -1.201701
 O         1.748535         1.112102        -0.872786
 C         3.542379        -0.735783         0.324097
 O         2.324653        -1.115684        -0.235026
 H        -0.508199        -0.604068         0.728008
 H        -0.471784         0.824238        -0.199211
 H        -0.044679        -0.712603        -1.041915
 H         1.364938         1.406183         1.579689
 H         1.752922        -0.300792         2.153875
 H         4.010619         0.671677         2.045477
 H         5.134748         1.010732        -0.021636
 H         3.222586         2.361327        -1.116626
 H         3.466408         0.910961        -2.224933
 H         4.175571        -1.589963         0.419878
