19
Iteration:  1130
 C         0.100444        -0.220103        -0.056887
 C         1.509690         0.096042         0.047055
 C         1.940191         0.534710         1.506961
 C         3.411651         0.556085         1.295849
 C         3.965342         0.617100        -0.134480
 C         3.189619         1.268441        -1.271576
 O         1.765226         1.083008        -1.026269
 C         3.514046        -0.750530         0.167036
 O         2.191703        -1.098581        -0.126904
 H        -0.171673        -0.809143         0.779755
 H        -0.448178         0.660429         0.003561
 H        -0.043569        -0.850943        -0.951816
 H         1.522170         1.594182         1.692473
 H         1.640104        -0.208233         2.268077
 H         4.225567         0.656133         2.036194
 H         5.023408         0.948337        -0.224878
 H         3.420818         2.402988        -1.254775
 H         3.568291         0.833199        -2.189088
 H         4.180596        -1.570245         0.192325
