19
Iteration:  4036charge 0 multiplicity 1
 C         0.000921        -0.085367        -0.113459
 C         1.466543         0.050728         0.047111
 C         1.975663         0.622322         1.421359
 C         3.452718         0.355479         1.261745
 C         4.023796         0.688587        -0.042922
 C         3.119697         1.509029        -1.031181
 O         1.786900         0.861629        -1.120950
 C         3.557385        -0.767918         0.163764
 O         2.241204        -1.180648        -0.145163
 H        -0.376738        -0.691839         0.699958
 H        -0.420881         0.932380        -0.327650
 H        -0.179656        -0.765237        -1.067849
 H         1.688215         1.723291         1.523582
 H         1.405439         0.024184         2.126142
 H         4.087070         0.372800         2.132530
 H         5.002973         1.006075        -0.242142
 H         3.143005         2.603780        -0.543859
 H         3.550822         1.597514        -2.085395
 H         4.295748        -1.560175         0.112545
