19
Iteration:  3509charge 0 multiplicity 1
 C         0.006336        -0.339480        -0.131607
 C         1.450342         0.137341         0.035692
 C         1.990462         0.662009         1.379450
 C         3.395490         0.290094         1.277823
 C         4.043875         0.596092        -0.083244
 C         3.204247         1.460069        -1.101756
 O         1.763611         1.109002        -1.090149
 C         3.567108        -0.808744         0.209013
 O         2.199805        -1.046946        -0.073282
 H        -0.243356        -1.016456         0.673733
 H        -0.791157         0.416406        -0.177564
 H         0.099960        -0.960738        -1.065166
 H         1.729935         1.688394         1.591888
 H         1.505926         0.043866         2.132683
 H         4.117223         0.445474         2.063048
 H         5.169911         0.875354        -0.157702
 H         3.183135         2.688403        -0.960758
 H         3.568227         1.164537        -2.147697
 H         4.154480        -1.677156         0.187869
