19
Iteration:  3159charge 0 multiplicity 1
 C        -0.066469        -0.353342        -0.168221
 C         1.413246         0.094833         0.012842
 C         1.931773         0.624760         1.360604
 C         3.472721         0.452849         1.276935
 C         4.000781         0.594057        -0.139713
 C         3.182830         1.205840        -1.192182
 O         1.759515         1.259352        -0.727411
 C         3.627313        -0.795713         0.342824
 O         2.324203        -1.010670        -0.339927
 H        -0.307251        -1.162664         0.515248
 H        -0.843239         0.331522        -0.132426
 H        -0.168143        -0.900884        -1.029333
 H         1.621024         1.622725         1.367660
 H         1.496854         0.238254         2.309134
 H         3.983754         0.597890         2.290917
 H         5.153748         0.906006        -0.290305
 H         3.516575         2.235566        -1.386751
 H         3.184760         0.722450        -2.143814
 H         4.086566        -1.810603         0.214358
