19
Iteration:  4389
 C         0.011865        -0.184151        -0.118203
 C         1.474373         0.071800         0.080084
 C         1.888275         0.457294         1.393221
 C         3.411215         0.487272         1.200586
 C         4.031844         0.668267        -0.113745
 C         3.139415         1.272695        -1.233813
 O         1.769535         1.120608        -0.875886
 C         3.581440        -0.726372         0.352951
 O         2.288249        -1.083379        -0.270006
 H        -0.338457        -0.767133         0.708367
 H        -0.364552         0.863085        -0.211233
 H        -0.149411        -0.765195        -1.082512
 H         1.316337         1.283044         1.749635
 H         1.731554        -0.425576         2.105814
 H         4.131083         0.747455         2.018465
 H         5.005070         0.837124        -0.061352
 H         3.483475         2.399165        -1.228924
 H         3.366356         0.916883        -2.214501
 H         4.238081        -1.615617         0.367607
