19
Iteration:  3428charge 0 multiplicity 1
 C         0.012816        -0.188645        -0.107919
 C         1.433555         0.134105         0.035943
 C         1.981586         0.563812         1.412955
 C         3.475721         0.390456         1.292032
 C         4.023734         0.713195        -0.079983
 C         3.164927         1.433760        -1.083618
 O         1.814765         0.933139        -1.092226
 C         3.514953        -0.767804         0.195172
 O         2.203953        -1.114794        -0.121993
 H        -0.359219        -1.155107         0.373785
 H        -0.629828         0.674892         0.155257
 H        -0.088868        -0.281266        -1.173397
 H         1.592771         1.583403         1.618671
 H         1.584279        -0.240015         2.114461
 H         4.165837         0.301541         2.106716
 H         4.972565         0.898290        -0.350424
 H         3.229039         2.657937        -0.827696
 H         3.549484         1.354568        -2.125922
 H         4.202965        -1.612011         0.111169
