19
Iteration:  1627
 C         0.004793        -0.360725        -0.039925
 C         1.418973         0.101118         0.054036
 C         1.957076         0.674866         1.462092
 C         3.549051         0.435376         1.246294
 C         4.034267         0.623707        -0.149680
 C         3.186445         1.342871        -1.235955
 O         1.734855         1.122046        -1.051025
 C         3.556532        -0.735835         0.297245
 O         2.199268        -1.108529        -0.148509
 H        -0.329557        -1.020348         0.727758
 H        -0.704519         0.509701        -0.192589
 H        -0.200579        -0.785606        -1.021675
 H         1.814614         1.722989         1.620053
 H         1.457372         0.093504         2.239790
 H         4.365588         0.468045         2.042537
 H         5.135796         0.716708        -0.290427
 H         3.346651         2.422038        -1.179666
 H         3.352638         0.966000        -2.253440
 H         4.134068        -1.655372         0.440322
