19
Iteration:  3102
 C        -0.081836        -0.139147        -0.098730
 C         1.464592         0.070210        -0.039492
 C         1.930096         0.579853         1.422728
 C         3.443669         0.384792         1.259761
 C         4.033233         0.696419        -0.130308
 C         3.166700         1.382573        -1.057312
 O         1.752516         0.974226        -1.075063
 C         3.597296        -0.731290         0.226598
 O         2.324299        -1.129037        -0.150656
 H        -0.329289        -1.009504         0.535839
 H        -0.611328         0.726328         0.310105
 H        -0.419833        -0.240695        -1.093608
 H         1.624446         1.567697         1.691704
 H         1.742983        -0.164329         2.193527
 H         3.999694         0.365681         2.210001
 H         5.058951         0.922091        -0.178964
 H         3.220202         2.464449        -0.722519
 H         3.512651         1.232264        -2.053272
 H         4.136379        -1.685203         0.261565
