19
Iteration:   975
 C        -0.050586        -0.304319        -0.029660
 C         1.426186         0.158737        -0.005800
 C         1.959512         0.624906         1.519499
 C         3.457828         0.458753         1.225352
 C         4.067119         0.626657        -0.172081
 C         3.219522         1.247059        -1.269543
 O         1.764423         1.085049        -0.984649
 C         3.508306        -0.755482         0.295956
 O         2.261165        -1.048633        -0.217130
 H        -0.179868        -0.909110         0.883077
 H        -0.736193         0.496333         0.028505
 H        -0.362178        -0.864944        -0.872400
 H         1.575731         1.659692         1.965534
 H         1.690714        -0.148805         2.276101
 H         4.107005         0.738317         2.051504
 H         5.137540         0.892265        -0.263580
 H         3.604555         2.294069        -1.365470
 H         3.300235         0.815248        -2.224482
 H         4.203687        -1.600214         0.528227
