19
Iteration:   870
 C        -0.096642        -0.231154         0.095106
 C         1.405579         0.004447        -0.026712
 C         1.932785         0.687286         1.248463
 C         3.501194         0.404323         1.160255
 C         4.078557         0.565052        -0.177909
 C         3.181614         1.444587        -1.106189
 O         1.765955         1.081550        -1.076759
 C         3.572404        -0.755448         0.322514
 O         2.275493        -1.175773        -0.091866
 H        -0.253320        -0.891716         1.047704
 H        -0.406610         0.795150         0.186693
 H        -0.529454        -0.739951        -0.831132
 H         1.776811         1.672222         1.197286
 H         1.467170         0.272366         2.128650
 H         3.994593         0.527440         2.117957
 H         5.165573         0.835605        -0.273182
 H         3.212868         2.485122        -0.792958
 H         3.467520         1.286635        -2.203512
 H         4.342027        -1.544437         0.477542
