19
Iteration:   122charge 0 multiplicity 1
 C        -0.076483        -0.320571         0.007511
 C         1.409983         0.085203        -0.005004
 C         2.024857         0.733394         1.438895
 C         3.446591         0.452514         1.267505
 C         3.982341         0.612735        -0.133828
 C         3.246765         1.454872        -1.186407
 O         1.808774         1.035140        -1.081773
 C         3.496679        -0.764170         0.291401
 O         2.251816        -1.175016        -0.186652
 H        -0.127660        -0.893495         0.925208
 H        -0.787683         0.446338         0.071784
 H        -0.258171        -1.037007        -0.750166
 H         1.674648         1.754205         1.456973
 H         1.455449         0.196443         2.277376
 H         4.300405         0.550558         1.992186
 H         5.099108         0.635955        -0.319404
 H         3.302264         2.542543        -1.075874
 H         3.544668         1.196086        -2.241035
 H         4.263649        -1.575827         0.341414
