19
Iteration:  2618charge 0 multiplicity 1
 C        -0.035105        -0.121102        -0.089494
 C         1.429918         0.079883         0.040549
 C         1.956729         0.532847         1.381735
 C         3.465566         0.339041         1.242704
 C         4.010976         0.658875        -0.136791
 C         3.129613         1.398428        -1.127804
 O         1.740179         1.031163        -0.990035
 C         3.627484        -0.748903         0.258161
 O         2.287157        -1.112256        -0.172333
 H        -0.431171        -0.471497         0.853477
 H        -0.537902         0.769799        -0.485929
 H        -0.156591        -0.914066        -0.832565
 H         1.501985         1.546453         1.549456
 H         1.629196        -0.175201         2.159094
 H         4.122427         0.558137         2.138483
 H         5.072721         0.926697        -0.282331
 H         3.353800         2.501727        -1.005315
 H         3.430347         1.069990        -2.106977
 H         4.360910        -1.560056         0.330423
