19
Iteration:  3009charge 0 multiplicity 1
 C         0.066654        -0.163203        -0.150597
 C         1.475485         0.037969         0.088475
 C         1.937530         0.612197         1.385215
 C         3.415436         0.433805         1.292021
 C         4.048197         0.604151        -0.177607
 C         3.113769         1.341561        -1.161888
 O         1.730538         1.118503        -0.886621
 C         3.576626        -0.779524         0.233387
 O         2.293698        -1.166382        -0.205373
 H        -0.488627        -0.694742         0.679545
 H        -0.606860         0.666559        -0.309506
 H        -0.116433        -0.808417        -1.020206
 H         1.572909         1.651711         1.357051
 H         1.422366         0.000539         2.143435
 H         4.006663         0.615545         2.227899
 H         5.125197         0.990473        -0.391666
 H         3.138221         2.431010        -0.924472
 H         3.466910         1.095456        -2.222051
 H         4.296475        -1.602386         0.376341
