19
Iteration:   808charge 0 multiplicity 1
 C        -0.028238        -0.218498        -0.097015
 C         1.451086         0.121600         0.013945
 C         1.982350         0.700864         1.271733
 C         3.580697         0.462301         1.266247
 C         4.007073         0.571059        -0.220955
 C         3.105994         1.420993        -1.037506
 O         1.763110         0.950664        -1.042273
 C         3.546242        -0.726567         0.212924
 O         2.207840        -1.195131         0.013053
 H        -0.413150        -0.772628         0.729708
 H        -0.600082         0.696623        -0.176375
 H        -0.250017        -0.829957        -0.991563
 H         1.816526         1.867395         1.453240
 H         1.653972         0.171898         2.197753
 H         4.332763         0.649754         2.014634
 H         5.097030         0.478037        -0.436444
 H         3.271922         2.473370        -0.752509
 H         3.307945         1.335327        -2.083390
 H         4.308612        -1.520552         0.152109
