19
Iteration:  4328
 C         0.060649        -0.313902        -0.155574
 C         1.449630         0.094234         0.020534
 C         1.960940         0.701035         1.371743
 C         3.461295         0.399135         1.309164
 C         4.003274         0.562553        -0.086744
 C         3.144420         1.290492        -1.128229
 O         1.705389         1.157611        -0.905896
 C         3.504033        -0.759234         0.277268
 O         2.320045        -1.070967        -0.289512
 H        -0.093988        -1.270297         0.380073
 H        -0.635510         0.290393         0.349850
 H        -0.198011        -0.385419        -1.195045
 H         1.706901         1.801496         1.301289
 H         1.511084         0.269809         2.232524
 H         4.118906         0.402673         2.220803
 H         5.159969         0.788123        -0.137264
 H         3.420956         2.277092        -1.014131
 H         3.142887         0.935383        -2.158829
 H         4.253922        -1.556585         0.397079
