19
Iteration:  3764
 C         0.055839        -0.306002        -0.168046
 C         1.463294         0.157340         0.066188
 C         1.902613         0.603808         1.411442
 C         3.395692         0.352734         1.308689
 C         3.998094         0.624224        -0.110036
 C         3.145025         1.158373        -1.266161
 O         1.785939         1.257448        -0.813264
 C         3.536752        -0.758094         0.268681
 O         2.333137        -1.039578        -0.274559
 H        -0.218116        -1.239821         0.282305
 H        -0.640375         0.435661         0.243419
 H        -0.076077        -0.388304        -1.278429
 H         1.495802         1.654874         1.476284
 H         1.575044         0.061421         2.286258
 H         3.882983         0.694194         2.223991
 H         5.040336         0.927437        -0.054199
 H         3.560158         2.077925        -1.580292
 H         3.070764         0.480407        -2.146441
 H         4.246090        -1.542851         0.376399
