19
Iteration:  1145charge 0 multiplicity 1
 C         0.043496        -0.302652        -0.062460
 C         1.446886         0.177334         0.097745
 C         1.975661         0.676795         1.446672
 C         3.467444         0.390258         1.243073
 C         3.965253         0.689221        -0.141122
 C         3.171532         1.266798        -1.250090
 O         1.812042         1.059034        -0.968679
 C         3.538611        -0.689128         0.259583
 O         2.217958        -1.072090        -0.200184
 H        -0.300025        -0.911408         0.796940
 H        -0.774756         0.506470        -0.268804
 H        -0.031109        -0.844042        -0.985404
 H         1.564587         1.553975         1.882709
 H         1.634941        -0.196259         2.211444
 H         3.993078         0.258502         2.189755
 H         5.014452         0.599024        -0.247643
 H         3.329807         2.317884        -1.645812
 H         3.348025         0.635995        -2.115263
 H         4.241987        -1.576981         0.312949
