19
Iteration:  1528charge 0 multiplicity 1
 C        -0.052508        -0.283795        -0.057235
 C         1.450015         0.124023         0.014433
 C         2.058739         0.740617         1.387609
 C         3.513488         0.376053         1.315975
 C         3.978725         0.657140        -0.096978
 C         3.130976         1.276121        -1.170130
 O         1.678772         1.065623        -1.009967
 C         3.589650        -0.751950         0.242062
 O         2.301596        -1.088658        -0.166021
 H        -0.302599        -1.096981         0.615914
 H        -0.847585         0.457216        -0.072403
 H        -0.216716        -0.803824        -1.051364
 H         1.789485         1.751419         1.372162
 H         1.482645         0.243385         2.224964
 H         4.299268         0.330898         2.021139
 H         4.974410         0.841537        -0.412079
 H         3.209556         2.373804        -1.214136
 H         3.480508         0.858800        -2.202239
 H         4.222475        -1.615621         0.457532
