19
Iteration:  2171
 C         0.072634        -0.231461        -0.029807
 C         1.461040         0.150248         0.076427
 C         1.928350         0.549574         1.469538
 C         3.426804         0.374367         1.253867
 C         4.017344         0.753020        -0.123373
 C         3.109592         1.087139        -1.339628
 O         1.772120         1.160767        -0.910864
 C         3.568831        -0.691205         0.229427
 O         2.264448        -1.023693        -0.178568
 H        -0.467393        -0.727625         0.860987
 H        -0.353778         0.723378        -0.406027
 H        -0.007268        -1.023491        -0.956489
 H         1.733773         1.583898         1.738163
 H         1.383889        -0.175814         2.098566
 H         4.247382         0.399560         2.067825
 H         5.115638         0.946301        -0.199302
 H         3.372353         2.039206        -1.856552
 H         3.076482         0.392523        -2.187516
 H         4.105074        -1.612736         0.389011
