19
Iteration:  1228
 C        -0.108310        -0.213542        -0.010151
 C         1.386207         0.192706        -0.020606
 C         2.029740         0.577006         1.385078
 C         3.539420         0.383035         1.313920
 C         4.018957         0.656765        -0.180639
 C         3.180234         1.474731        -1.125632
 O         1.774649         0.902615        -1.176051
 C         3.583615        -0.664662         0.259799
 O         2.244966        -1.157955        -0.046265
 H        -0.400868        -1.130180         0.529571
 H        -0.833267         0.557957         0.336154
 H        -0.338776        -0.494076        -1.075529
 H         1.718189         1.658968         1.612125
 H         1.618995        -0.085319         2.049517
 H         4.140095         0.401617         2.239411
 H         5.127649         0.720563        -0.211596
 H         3.051917         2.518322        -0.903929
 H         3.665476         1.308329        -2.155762
 H         4.186411        -1.619548         0.221352
