19
Iteration:   893
 C        -0.027716        -0.181807        -0.021125
 C         1.480900         0.137284         0.019737
 C         1.962917         0.672893         1.439762
 C         3.460829         0.512198         1.218557
 C         3.976989         0.571428        -0.143597
 C         3.167684         1.341549        -1.245676
 O         1.760527         0.998081        -1.004947
 C         3.553114        -0.763841         0.298574
 O         2.275654        -1.171434        -0.168739
 H        -0.094924        -1.103601         0.629516
 H        -0.600937         0.704932         0.292213
 H        -0.246948        -0.482631        -1.101806
 H         1.636148         1.606833         1.649200
 H         1.653675        -0.043078         2.189697
 H         4.113021         0.555964         2.085931
 H         5.068303         0.766815        -0.214706
 H         3.277706         2.417814        -1.082735
 H         3.203526         1.035056        -2.312966
 H         4.320439        -1.536647         0.396838
