19
Iteration:   434charge 0 multiplicity 1
 C         0.006169        -0.200317        -0.112722
 C         1.491030         0.158791         0.077427
 C         1.982655         0.605838         1.389577
 C         3.493199         0.480614         1.217628
 C         4.046844         0.617169        -0.252641
 C         3.127441         1.468590        -1.155149
 O         1.759676         0.929274        -1.060320
 C         3.564597        -0.757620         0.370419
 O         2.199731        -1.182086        -0.092503
 H        -0.503611        -0.888831         0.549230
 H        -0.667453         0.698388        -0.071052
 H        -0.103323        -0.703383        -1.089646
 H         1.563526         1.592604         1.569263
 H         1.720478        -0.003427         2.237460
 H         4.255393         0.592774         1.968560
 H         5.121327         0.666917        -0.073519
 H         3.017620         2.511061        -0.917771
 H         3.323209         1.313792        -2.227680
 H         4.186383        -1.590476         0.632838
