19
Iteration:   543
 C         0.008866        -0.282094        -0.066852
 C         1.529850         0.038718         0.041028
 C         1.926909         0.669289         1.422066
 C         3.440561         0.584550         1.238470
 C         3.990170         0.588606        -0.201309
 C         3.175514         1.289359        -1.232259
 O         1.787891         1.089977        -0.957730
 C         3.534501        -0.693133         0.282092
 O         2.200619        -1.193384        -0.152568
 H        -0.137734        -1.084722         0.640351
 H        -0.319334         0.647258         0.406080
 H        -0.354560        -0.356697        -1.063030
 H         1.398482         1.655624         1.567814
 H         1.731942        -0.085710         2.304810
 H         4.144058         0.824493         2.042681
 H         5.041775         0.746602        -0.305924
 H         3.453343         2.367340        -1.181478
 H         3.565739         0.844566        -2.264402
 H         4.185803        -1.622567         0.367078
