19
Iteration:   553charge 0 multiplicity 1
 C         0.027247        -0.187723        -0.101493
 C         1.416037         0.043180         0.077355
 C         1.965710         0.665456         1.406224
 C         3.510416         0.529007         1.230886
 C         4.058169         0.607719        -0.205671
 C         3.127911         1.294233        -1.218083
 O         1.753790         1.014709        -0.970011
 C         3.549587        -0.715969         0.311593
 O         2.252669        -1.171128        -0.110607
 H        -0.409416        -1.087373         0.258746
 H        -0.668986         0.636061         0.251679
 H        -0.163370        -0.353674        -1.158692
 H         1.491424         1.648975         1.589042
 H         1.524529        -0.031875         2.294586
 H         4.023546         0.806052         2.149212
 H         5.110825         0.604835        -0.448123
 H         3.218578         2.410042        -1.071518
 H         3.289874         1.099297        -2.362323
 H         4.427204        -1.438576         0.330856
