19
Iteration:  4509charge 0 multiplicity 1
 C        -0.030143        -0.126925        -0.141886
 C         1.476131         0.090680         0.116059
 C         1.970632         0.553222         1.464675
 C         3.477187         0.292236         1.332122
 C         3.934612         0.681217        -0.061033
 C         3.120808         1.401489        -1.170922
 O         1.760933         0.942895        -1.059290
 C         3.602466        -0.731684         0.155438
 O         2.290865        -1.047329        -0.212249
 H        -0.338665        -1.109654         0.332333
 H        -0.571125         0.705610         0.305514
 H        -0.090859        -0.256028        -1.263645
 H         1.689043         1.565499         1.500534
 H         1.485699        -0.075980         2.300574
 H         4.210724         0.671083         2.138130
 H         4.904957         0.830457        -0.000317
 H         3.087239         2.494783        -1.041175
 H         3.599342         1.034658        -2.064486
 H         4.380103        -1.490182         0.349069
