19
Iteration:  1068charge 0 multiplicity 1
 C         0.042279        -0.284760         0.022425
 C         1.485633         0.150792         0.018903
 C         2.039839         0.765472         1.342320
 C         3.456587         0.346762         1.285602
 C         3.933814         0.584138        -0.211923
 C         3.118735         1.492600        -1.077380
 O         1.850577         0.931059        -1.170374
 C         3.502365        -0.786331         0.255046
 O         2.193524        -1.127927        -0.063455
 H         0.033194        -1.185360         0.606109
 H        -0.770027         0.527557         0.318270
 H        -0.241423        -0.573936        -1.021662
 H         1.947661         1.827371         1.386862
 H         1.463172         0.301378         2.240333
 H         4.038318         0.445884         2.250483
 H         4.969699         0.868661        -0.264959
 H         3.000832         2.546852        -0.852876
 H         3.615397         1.485683        -2.073902
 H         4.093422        -1.698787         0.077837
