19
Iteration:   948charge 0 multiplicity 1
 C         0.041264        -0.288014        -0.038996
 C         1.483380         0.050689         0.023760
 C         1.923304         0.682687         1.358885
 C         3.457810         0.446862         1.238419
 C         4.003541         0.591845        -0.174593
 C         3.128070         1.182753        -1.233821
 O         1.757101         1.187763        -0.852466
 C         3.542257        -0.752307         0.307585
 O         2.288970        -1.049234        -0.213011
 H        -0.191638        -1.125525         0.643574
 H        -0.608723         0.652937         0.123530
 H        -0.222231        -0.698837        -1.073153
 H         1.615145         1.641760         1.305375
 H         1.504750         0.196034         2.229400
 H         4.069760         0.733821         2.098211
 H         5.028092         0.784259        -0.492347
 H         3.605754         2.158184        -1.362371
 H         3.151473         0.647257        -2.283183
 H         4.162155        -1.548252         0.637274
