19
Iteration:  1879charge 0 multiplicity 1
 C        -0.009258        -0.271821         0.088161
 C         1.429034         0.094814         0.008661
 C         2.037732         0.788274         1.274163
 C         3.502492         0.419370         1.193272
 C         3.995739         0.587924        -0.180125
 C         3.134596         1.493762        -0.941781
 O         1.820794         0.885683        -1.191219
 C         3.541830        -0.811740         0.278483
 O         2.195265        -1.090409        -0.163889
 H        -0.083390        -1.145655         0.876274
 H        -0.584441         0.609110         0.411074
 H        -0.412364        -0.719034        -0.847435
 H         1.804951         1.853196         1.080183
 H         1.626253         0.401990         2.248219
 H         4.119591         0.472466         2.079186
 H         5.059057         0.497792        -0.449621
 H         2.925519         2.404296        -0.311796
 H         3.457381         1.719245        -1.919391
 H         4.052305        -1.803583         0.402015
