19
Iteration:  3816charge 0 multiplicity 1
 C         0.017431        -0.166391        -0.146720
 C         1.496129         0.075623         0.030848
 C         1.910690         0.560160         1.459577
 C         3.422537         0.365796         1.285272
 C         3.946976         0.678432        -0.111398
 C         3.190441         1.398202        -1.172130
 O         1.824687         1.021814        -1.036867
 C         3.585025        -0.731718         0.242580
 O         2.229153        -1.126883        -0.174683
 H        -0.201737        -0.916716         0.721335
 H        -0.637867         0.666150         0.156176
 H        -0.257460        -0.576979        -1.109414
 H         1.539538         1.593510         1.775034
 H         1.510927        -0.133703         2.248984
 H         4.056124         0.564723         2.150120
 H         4.919202         0.898432        -0.078493
 H         3.594146         2.449570        -1.055117
 H         3.376060         1.201983        -2.195927
 H         4.216169        -1.603392         0.259765
