19
Iteration:  4398charge 0 multiplicity 1
 C         0.044523        -0.136784        -0.133578
 C         1.500372         0.021757         0.024686
 C         1.953442         0.477894         1.431100
 C         3.366426         0.466527         1.253126
 C         4.001248         0.647946        -0.204832
 C         3.159566         1.325617        -1.187884
 O         1.743939         1.106629        -0.877974
 C         3.542952        -0.733205         0.298220
 O         2.334706        -1.128183        -0.217767
 H        -0.518686        -0.553000         0.664964
 H        -0.520897         0.842872        -0.249067
 H        -0.077320        -0.728298        -1.094776
 H         1.488806         1.412917         1.550054
 H         1.670483        -0.274694         2.247040
 H         3.973866         0.604369         2.118743
 H         4.954551         1.000688        -0.106576
 H         3.142405         2.450887        -1.123075
 H         3.419959         0.951316        -2.185948
 H         4.196554        -1.574184         0.490138
