19
Iteration:  4790charge 0 multiplicity 1
 C         0.050027        -0.260047        -0.195996
 C         1.504869         0.090379        -0.029078
 C         1.964287         0.613919         1.438493
 C         3.413819         0.412166         1.197063
 C         3.977197         0.571799        -0.151389
 C         3.104437         1.257126        -1.170602
 O         1.726516         1.259330        -0.761466
 C         3.540244        -0.808015         0.340372
 O         2.326551        -1.053545        -0.275085
 H        -0.114863        -0.917646         0.654635
 H        -0.695227         0.485158        -0.096048
 H        -0.113357        -0.950557        -1.019233
 H         1.504496         1.539511         1.530280
 H         1.693880        -0.180125         2.182967
 H         4.144262         0.548525         1.992119
 H         5.033354         0.810067        -0.249597
 H         3.537576         2.344254        -1.199353
 H         3.164620         0.907662        -2.214183
 H         4.143634        -1.769645         0.409710
