19
Iteration:  1343
 C        -0.096792        -0.175239        -0.080521
 C         1.412526         0.002180         0.042940
 C         1.996472         0.607458         1.267883
 C         3.520543         0.477087         1.279635
 C         4.085146         0.686332        -0.072311
 C         3.097724         1.174516        -1.173271
 O         1.656721         1.153854        -0.895284
 C         3.624035        -0.756142         0.294669
 O         2.320730        -1.130777        -0.227075
 H        -0.594027        -0.860085         0.647089
 H        -0.590972         0.732050        -0.160555
 H        -0.075923        -0.714429        -1.075402
 H         1.753851         1.668318         1.272328
 H         1.886944         0.103296         2.338155
 H         4.019911         0.672707         2.250375
 H         5.128158         0.788151        -0.488523
 H         3.060298         2.310769        -1.251840
 H         3.454750         0.814736        -2.124234
 H         4.445455        -1.452834         0.394926
