19
Iteration:  2525
 C        -0.044236        -0.081924        -0.162763
 C         1.517457         0.012340         0.096169
 C         1.899341         0.617934         1.374073
 C         3.415413         0.410351         1.249580
 C         4.020205         0.709272        -0.147712
 C         3.110703         1.237376        -1.187796
 O         1.733805         1.020225        -0.881764
 C         3.629464        -0.788922         0.286394
 O         2.329350        -1.112067        -0.213884
 H        -0.403242        -1.204558         0.021414
 H        -0.489428         0.620071         0.578201
 H        -0.438884         0.279021        -1.092430
 H         1.528997         1.625167         1.325508
 H         1.830315         0.155502         2.363905
 H         4.068513         0.580242         2.049510
 H         5.036173         0.945244        -0.057645
 H         3.262510         2.419180        -1.250627
 H         3.459661         0.882597        -2.276826
 H         4.361448        -1.610078         0.325992
