19
Iteration:  4907charge 0 multiplicity 1
 C         0.018622        -0.259686        -0.135879
 C         1.496827         0.139140         0.046781
 C         1.991325         0.709385         1.445997
 C         3.510937         0.234712         1.293741
 C         3.987990         0.621127        -0.122340
 C         3.097046         1.506194        -1.023682
 O         1.779642         0.987120        -1.064676
 C         3.532562        -0.721934         0.151367
 O         2.175403        -1.134740        -0.164039
 H        -0.027011        -1.033815         0.569231
 H        -0.576910         0.597730         0.164755
 H        -0.097760        -0.811978        -1.171450
 H         1.881563         1.839779         1.433242
 H         1.554114         0.179750         2.224301
 H         4.256395         0.152443         2.080837
 H         4.965957         0.786562        -0.176336
 H         3.160133         2.617554        -0.736641
 H         3.516082         1.478593        -2.054464
 H         4.263331        -1.569516         0.001708
