19
Iteration:  1107
 C        -0.138744        -0.155504        -0.062896
 C         1.454856         0.065860         0.010954
 C         1.982936         0.641417         1.327422
 C         3.436887         0.408405         1.237307
 C         4.071843         0.598365        -0.197515
 C         3.099675         1.371547        -1.172898
 O         1.731425         1.016263        -0.983226
 C         3.632721        -0.758684         0.381503
 O         2.333521        -1.126309        -0.149525
 H        -0.518618        -0.869880         0.698614
 H        -0.583705         0.743199         0.140999
 H        -0.350827        -0.617700        -1.042925
 H         1.736343         1.744639         1.559263
 H         1.711402        -0.017996         2.114738
 H         4.021483         0.468861         2.162079
 H         5.115038         0.921964        -0.512373
 H         3.386888         2.457058        -1.082641
 H         3.370621         0.975335        -2.162509
 H         4.396405        -1.479254         0.510872
