19
Iteration:  3645charge 0 multiplicity 1
 C         0.034398        -0.233987        -0.104157
 C         1.451971         0.115432         0.051337
 C         1.980120         0.726205         1.322852
 C         3.450396         0.351179         1.295766
 C         3.983894         0.591508        -0.164290
 C         3.105266         1.549167        -0.940939
 O         1.854243         0.936416        -1.159908
 C         3.519057        -0.817347         0.232016
 O         2.218792        -1.164012        -0.133195
 H        -0.220972        -1.000716         0.565303
 H        -0.502621         0.661922         0.196037
 H        -0.176572        -0.567443        -1.126792
 H         1.817189         1.797704         1.272975
 H         1.482973         0.303268         2.147149
 H         4.163086         0.361431         2.167789
 H         5.068106         0.728916        -0.292662
 H         2.976956         2.554259        -0.296149
 H         3.508617         1.742150        -1.957644
 H         4.219449        -1.709084         0.245085
