19
Iteration:   953
 C         0.069665        -0.281409         0.004582
 C         1.479010         0.016612         0.060902
 C         1.906827         0.631144         1.340232
 C         3.446614         0.483340         1.228291
 C         4.018497         0.561460        -0.202502
 C         3.138123         1.185336        -1.272077
 O         1.752710         1.189200        -0.864273
 C         3.545176        -0.737610         0.313583
 O         2.266476        -1.005039        -0.226307
 H        -0.266156        -1.068626         0.678275
 H        -0.618151         0.520561         0.045959
 H        -0.040019        -0.600335        -1.000729
 H         1.451330         1.745119         1.346846
 H         1.446184         0.145246         2.238506
 H         4.044011         0.566276         2.147909
 H         5.114119         0.645594        -0.316200
 H         3.572884         2.225009        -1.345343
 H         3.364387         0.754702        -2.204193
 H         4.183298        -1.553210         0.731794
