19
Iteration:  4731charge 0 multiplicity 1
 C         0.005724        -0.153334        -0.070686
 C         1.505004         0.074327         0.056984
 C         1.946419         0.525908         1.421203
 C         3.453641         0.359942         1.322938
 C         4.000983         0.659907        -0.106642
 C         3.128655         1.304373        -1.180589
 O         1.690235         1.145953        -0.975146
 C         3.600283        -0.768415         0.259852
 O         2.299599        -1.084826        -0.287030
 H        -0.248249        -0.907009         0.764037
 H        -0.671900         0.757721        -0.129863
 H        -0.003216        -0.573006        -1.140631
 H         1.382824         1.501923         1.761463
 H         1.501944        -0.199995         2.112848
 H         4.101914         0.531107         2.189757
 H         5.145672         0.839673        -0.135357
 H         3.376134         2.376844        -1.277448
 H         3.456020         0.916456        -2.202974
 H         4.238199        -1.624374         0.363509
