19
Iteration:  2923
 C        -0.045281        -0.285205        -0.129888
 C         1.467639         0.053221         0.033614
 C         1.994622         0.723148         1.342465
 C         3.421325         0.377485         1.251375
 C         4.043334         0.607768        -0.156463
 C         3.173033         1.338178        -1.110435
 O         1.706909         1.176543        -0.885284
 C         3.562717        -0.778119         0.311537
 O         2.318537        -1.138372        -0.242900
 H        -0.194712        -1.293876         0.402128
 H        -0.640050         0.451104         0.363091
 H        -0.138373        -0.325020        -1.217850
 H         1.632628         1.750029         1.299200
 H         1.457564         0.215003         2.108953
 H         3.967359         0.633885         2.151433
 H         5.156380         0.587737        -0.195901
 H         3.276372         2.416409        -1.060995
 H         3.345766         0.836024        -2.086634
 H         4.129009        -1.689943         0.331789
