19
Iteration:  4229charge 0 multiplicity 1
 C         0.027827        -0.307803        -0.069143
 C         1.477481         0.117072        -0.013514
 C         1.937327         0.658115         1.326546
 C         3.420932         0.400693         1.246660
 C         4.058376         0.608440        -0.132009
 C         3.191039         1.504854        -1.028148
 O         1.840973         0.997509        -1.046634
 C         3.500689        -0.777760         0.299386
 O         2.181735        -1.122870        -0.200564
 H        -0.254489        -0.771343         0.821768
 H        -0.636220         0.505107        -0.180405
 H        -0.158798        -1.077086        -0.825102
 H         1.679612         1.727149         1.390902
 H         1.518577         0.167336         2.168067
 H         4.136543         0.317252         2.075153
 H         5.092125         0.698103        -0.232267
 H         3.111249         2.612548        -0.633081
 H         3.417799         1.618057        -2.062841
 H         4.173292        -1.611549         0.418641
