19
Iteration:  3768charge 0 multiplicity 1
 C         0.015960        -0.291732        -0.189296
 C         1.470274         0.135836         0.023187
 C         1.904208         0.587977         1.436429
 C         3.426787         0.373150         1.285883
 C         3.966862         0.623961        -0.100566
 C         3.147540         1.153797        -1.234453
 O         1.778437         1.259919        -0.813271
 C         3.566887        -0.779236         0.306184
 O         2.327112        -1.045658        -0.283245
 H        -0.238165        -1.192407         0.353705
 H        -0.601472         0.476099         0.287840
 H        -0.074150        -0.274909        -1.288749
 H         1.538519         1.567748         1.484719
 H         1.510767         0.155909         2.370985
 H         3.935702         0.742853         2.167358
 H         5.109707         0.956821        -0.066728
 H         3.435924         2.116191        -1.761968
 H         3.148600         0.525005        -2.153874
 H         4.371457        -1.513946         0.376028
