19
Iteration:   424
 C         0.002175        -0.168068        -0.104474
 C         1.432151         0.113225         0.020855
 C         1.984790         0.708331         1.386306
 C         3.481550         0.370956         1.239282
 C         4.058967         0.634096        -0.150910
 C         3.064833         1.386702        -1.133839
 O         1.750396         0.889473        -1.061898
 C         3.551624        -0.759164         0.265396
 O         2.288071        -1.108564        -0.063546
 H        -0.138000        -0.937393         0.681320
 H        -0.611010         0.764356        -0.008101
 H        -0.091299        -0.617344        -1.109119
 H         1.730266         1.779394         1.480426
 H         1.482268         0.168834         2.122184
 H         4.078354         0.419165         2.143211
 H         5.086016         0.900079        -0.432973
 H         3.121474         2.424738        -0.837665
 H         3.370285         1.376356        -2.150509
 H         4.249021        -1.587505         0.396367
