19
Iteration:  1383charge 0 multiplicity 1
 C         0.101003        -0.366872         0.002918
 C         1.520192         0.222205         0.087073
 C         1.921106         0.556774         1.467621
 C         3.414334         0.436633         1.244462
 C         4.000536         0.684193        -0.180504
 C         3.161675         1.245534        -1.323031
 O         1.795463         1.144235        -0.981131
 C         3.527710        -0.740099         0.319003
 O         2.189113        -1.045171        -0.188037
 H        -0.117687        -1.339116         0.543824
 H        -0.652431         0.473810         0.116593
 H         0.118884        -0.524902        -1.058342
 H         1.634335         1.527319         1.781195
 H         1.354329        -0.126894         2.093687
 H         4.014761         0.623014         2.163933
 H         5.092045         0.905543        -0.169049
 H         3.497500         2.198360        -1.658435
 H         3.217639         0.487237        -2.195854
 H         4.133735        -1.632136         0.230513
