19
Iteration:  4233
 C         0.017312        -0.296731        -0.075244
 C         1.427368         0.112679         0.003770
 C         1.925984         0.692338         1.280185
 C         3.463232         0.382784         1.245437
 C         4.061400         0.584324        -0.126286
 C         3.159805         1.498476        -0.983306
 O         1.845620         0.986290        -1.052784
 C         3.516135        -0.738231         0.292784
 O         2.214709        -1.146920        -0.208557
 H        -0.341094        -0.701129         0.973884
 H        -0.678575         0.585770        -0.132575
 H        -0.186686        -1.036842        -0.875119
 H         1.687868         1.792518         1.403872
 H         1.471694         0.131726         2.134449
 H         4.080765         0.313927         2.156456
 H         5.235107         0.679800        -0.250963
 H         3.008619         2.567131        -0.601179
 H         3.512549         1.624780        -2.067261
 H         4.197938        -1.593944         0.333659
