19
Iteration:  1315charge 0 multiplicity 1
 C         0.045107        -0.275170        -0.027975
 C         1.495921         0.158379         0.026014
 C         1.881552         0.632770         1.504252
 C         3.428567         0.379699         1.294789
 C         3.974761         0.606048        -0.223011
 C         3.146697         1.406507        -1.226668
 O         1.821322         0.993768        -1.045699
 C         3.530431        -0.769491         0.231327
 O         2.255870        -1.077097        -0.128313
 H        -0.180309        -0.867038         0.852854
 H        -0.570191         0.694603        -0.146593
 H        -0.023239        -0.895160        -0.938756
 H         1.648653         1.722844         1.778893
 H         1.548815         0.134329         2.335447
 H         4.152281         0.595582         2.062713
 H         5.038077         0.717689        -0.427009
 H         3.014017         2.469869        -1.004793
 H         3.575049         1.286604        -2.276477
 H         4.330025        -1.567960         0.151178
