19
Iteration:  1108charge 0 multiplicity 1
 C        -0.139479        -0.160231        -0.059297
 C         1.456905         0.073856         0.012249
 C         1.975582         0.634017         1.329025
 C         3.445903         0.404638         1.233906
 C         4.059490         0.603132        -0.198524
 C         3.106415         1.367702        -1.182468
 O         1.733321         1.020058        -0.983069
 C         3.635221        -0.758242         0.381723
 O         2.332883        -1.124984        -0.146517
 H        -0.498428        -0.852833         0.683106
 H        -0.576774         0.754322         0.123099
 H        -0.352579        -0.622718        -1.035971
 H         1.710161         1.736717         1.569899
 H         1.688909        -0.069720         2.133091
 H         4.026503         0.521837         2.163565
 H         5.123268         0.877125        -0.474399
 H         3.406881         2.467941        -1.091567
 H         3.351573         0.991004        -2.160118
 H         4.387177        -1.480843         0.511715
