19
Iteration:  3033
 C        -0.006459        -0.362367        -0.132898
 C         1.390346         0.125641         0.045857
 C         2.056762         0.654810         1.396948
 C         3.506236         0.360465         1.229008
 C         4.024000         0.638539        -0.140327
 C         3.193951         1.528669        -1.051914
 O         1.804424         0.981139        -1.092571
 C         3.493667        -0.802162         0.290069
 O         2.193706        -1.043545        -0.135035
 H        -0.400430        -0.821599         0.774051
 H        -0.773653         0.461120        -0.099740
 H        -0.431655        -0.983516        -1.011799
 H         1.821679         1.782588         1.451380
 H         1.591975         0.038364         2.125596
 H         4.089189         0.276591         2.145782
 H         5.124900         0.682758        -0.273637
 H         3.048456         2.577959        -0.611601
 H         3.604435         1.436314        -2.095623
 H         4.260709        -1.549182         0.142439
