19
Iteration:  2784charge 0 multiplicity 1
 C        -0.046016        -0.340138        -0.206671
 C         1.487412         0.141048         0.027237
 C         1.932588         0.560630         1.461901
 C         3.425797         0.447394         1.271616
 C         4.023855         0.628076        -0.126646
 C         3.166890         1.173355        -1.288291
 O         1.784313         1.223026        -0.819783
 C         3.602495        -0.751591         0.332627
 O         2.249377        -1.012331        -0.259072
 H        -0.375248        -1.209945         0.456341
 H        -0.665920         0.498345         0.129521
 H        -0.292930        -0.668266        -1.246296
 H         1.873887         1.726575         1.689831
 H         1.500078         0.051446         2.413362
 H         4.155838         0.665071         2.010289
 H         5.114984         0.747387        -0.208035
 H         3.388742         2.175502        -1.336674
 H         3.150535         0.537394        -2.211618
 H         4.301466        -1.563160         0.454756
