19
Iteration:  4338charge 0 multiplicity 1
 C         0.099456        -0.340507        -0.151010
 C         1.527404         0.135806         0.006163
 C         1.975802         0.730074         1.406083
 C         3.373079         0.362469         1.340859
 C         3.980965         0.593188        -0.073460
 C         3.082047         1.213533        -1.107208
 O         1.713557         1.187745        -0.872217
 C         3.585250        -0.775914         0.248243
 O         2.267291        -1.047052        -0.326266
 H         0.124658        -1.330934         0.300366
 H        -0.504976         0.402519         0.264266
 H        -0.173635        -0.439698        -1.191691
 H         1.689905         1.818241         1.315849
 H         1.491568         0.362396         2.273484
 H         4.088790         0.555209         2.218456
 H         5.060570         0.986146        -0.297185
 H         3.330867         2.187507        -1.411091
 H         3.464131         0.607410        -2.010187
 H         4.049154        -1.790767         0.229974
