19
Iteration:  2639
 C        -0.009834        -0.182747        -0.076799
 C         1.457501         0.097029         0.014048
 C         2.014695         0.544815         1.542291
 C         3.485925         0.387378         1.279480
 C         4.004436         0.655727        -0.204121
 C         3.139250         1.539478        -1.082094
 O         1.862580         0.875237        -1.149043
 C         3.478325        -0.685797         0.184357
 O         2.203867        -1.150113        -0.125601
 H        -0.495812        -0.260292         0.860989
 H        -0.331797         0.774377        -0.536838
 H        -0.383537        -0.933834        -0.783224
 H         1.576742         1.522095         1.825772
 H         1.622515        -0.263693         2.153619
 H         4.157606         0.385360         2.198768
 H         5.091929         0.824501        -0.137008
 H         3.126183         2.585799        -0.611338
 H         3.424211         1.677607        -2.142645
 H         4.114194        -1.567531         0.222108
