19
Iteration:  2301charge 0 multiplicity 1
 C        -0.059531        -0.202672         0.009196
 C         1.429809        -0.008755        -0.012396
 C         1.975817         0.715514         1.300374
 C         3.506636         0.457792         1.201632
 C         4.054080         0.587140        -0.250341
 C         3.171035         1.515186        -1.062296
 O         1.808975         0.961828        -1.057460
 C         3.506494        -0.791144         0.315374
 O         2.258726        -1.211922        -0.098186
 H        -0.431439        -1.138316         0.405142
 H        -0.488430         0.541782         0.639211
 H        -0.328138         0.103320        -1.011262
 H         1.541365         1.694789         1.207447
 H         1.540051         0.294145         2.174659
 H         4.216648         0.651735         2.003692
 H         5.108715         0.751781        -0.396877
 H         2.984980         2.484506        -0.534264
 H         3.425090         1.629186        -2.098569
 H         4.146146        -1.675005         0.626488
