19
Iteration:  2287charge 0 multiplicity 1
 C        -0.009705        -0.062376         0.003688
 C         1.526352         0.058826         0.030513
 C         2.010132         0.745634         1.261882
 C         3.436559         0.408862         1.218347
 C         3.950701         0.600244        -0.167663
 C         3.023999         1.471452        -0.969262
 O         1.782003         0.832564        -1.158817
 C         3.595691        -0.765239         0.269964
 O         2.270616        -1.243065        -0.117709
 H        -0.240305        -1.136675         0.278013
 H        -0.446623         0.651008         0.702376
 H        -0.423560         0.113872        -0.893564
 H         1.946452         1.839762         1.268907
 H         1.572010         0.349325         2.211952
 H         4.056262         0.433172         2.196083
 H         5.043042         0.746986        -0.260250
 H         3.127342         2.452325        -0.526352
 H         3.493515         1.692043        -2.010617
 H         4.429357        -1.454317         0.229034
