19
Iteration:  3726
 C        -0.066787        -0.334726        -0.138486
 C         1.422529         0.110991         0.066427
 C         2.024996         0.633487         1.380564
 C         3.427566         0.403701         1.314997
 C         3.998538         0.595886        -0.071169
 C         3.227070         1.292547        -1.153746
 O         1.737057         1.184907        -0.973218
 C         3.563206        -0.757444         0.290316
 O         2.271971        -1.049929        -0.271387
 H        -0.232449        -1.052886         0.758340
 H        -0.814555         0.489387        -0.139749
 H        -0.072472        -0.842468        -1.126111
 H         1.773771         1.656231         1.683496
 H         1.529684        -0.082513         2.152091
 H         4.154320         0.597718         2.085591
 H         5.130466         0.740908        -0.083902
 H         3.459037         2.450143        -1.197715
 H         3.581630         0.958746        -2.164194
 H         3.984652        -1.773854         0.227284
