19
Iteration:   299charge 0 multiplicity 1
 C        -0.074063        -0.250253        -0.101962
 C         1.425932         0.068043         0.015094
 C         2.030056         0.657506         1.438842
 C         3.448722         0.448454         1.248287
 C         4.023002         0.623568        -0.167602
 C         3.150824         1.275127        -1.240107
 O         1.742781         1.111269        -0.959229
 C         3.539636        -0.733974         0.365680
 O         2.324564        -1.110736        -0.190549
 H        -0.223348        -0.816522         0.812591
 H        -0.636322         0.657287        -0.225818
 H        -0.217828        -0.842644        -1.000330
 H         1.678178         1.640507         1.587859
 H         1.458604        -0.039499         2.164498
 H         4.163884         0.517986         2.076495
 H         5.038557         0.941544        -0.325926
 H         3.308979         2.347872        -1.233029
 H         3.445396         0.770371        -2.248228
 H         4.183957        -1.617681         0.638893
