19
Iteration:  2685charge 0 multiplicity 1
 C         0.007498        -0.230230        -0.048494
 C         1.498603        -0.009678         0.048789
 C         1.989885         0.819766         1.293275
 C         3.409634         0.275540         1.300785
 C         4.009904         0.562224        -0.213665
 C         3.141073         1.520262        -0.932885
 O         1.730045         1.006124        -1.092566
 C         3.603965        -0.773249         0.288697
 O         2.235516        -1.151399        -0.235685
 H        -0.277682        -0.961497         0.812902
 H        -0.664559         0.624638        -0.065828
 H        -0.209830        -0.766046        -0.931661
 H         2.015948         1.931730         0.928628
 H         1.495305         0.582590         2.277212
 H         4.131249         0.463439         2.091381
 H         5.081159         0.650491        -0.286074
 H         3.010306         2.498614        -0.345317
 H         3.604928         1.618887        -1.948849
 H         4.241229        -1.676741         0.423286
