19
Iteration:  2124charge 0 multiplicity 1
 C        -0.004044        -0.198733        -0.026711
 C         1.467783         0.039209         0.086007
 C         1.979777         0.711329         1.373600
 C         3.443253         0.433369         1.207045
 C         4.107151         0.612513        -0.188889
 C         3.176459         1.338544        -1.169774
 O         1.695738         0.975243        -0.989280
 C         3.543413        -0.739879         0.268435
 O         2.239932        -1.099139        -0.163717
 H        -0.221293        -1.150655         0.546848
 H        -0.602508         0.691541         0.381878
 H        -0.267391        -0.372006        -1.027351
 H         1.567767         1.697852         1.447132
 H         1.709182         0.154281         2.243496
 H         4.096243         0.370211         2.067638
 H         5.183758         0.915377        -0.357297
 H         3.283868         2.450607        -1.173614
 H         3.295788         1.070026        -2.198038
 H         4.222834        -1.578425         0.468918
