19
Iteration:  3049
 C        -0.018557        -0.324682        -0.024519
 C         1.474765         0.174534        -0.036012
 C         2.001016         0.738192         1.321381
 C         3.507295         0.237390         1.323755
 C         4.057303         0.632366        -0.133813
 C         3.094057         1.533079        -0.957308
 O         1.808272         0.937706        -1.211911
 C         3.546663        -0.750437         0.200378
 O         2.155752        -1.085854        -0.102238
 H        -0.087525        -1.119095         0.736899
 H        -0.763068         0.437177        -0.063931
 H         0.084482        -0.768968        -0.951445
 H         1.901071         1.776692         1.438008
 H         1.473334         0.264943         2.209405
 H         4.152153         0.303163         2.217357
 H         5.156177         0.694560        -0.211832
 H         3.076321         2.486176        -0.467929
 H         3.416654         1.774492        -1.952375
 H         4.019248        -1.740743         0.285798
