19
Iteration:   509charge 0 multiplicity 1
 C         0.013871        -0.343848         0.027286
 C         1.436981         0.142326        -0.025745
 C         1.942918         0.755392         1.387384
 C         3.422290         0.385702         1.455179
 C         4.085883         0.623798        -0.150108
 C         3.179034         1.135675        -1.187410
 O         1.664100         1.115852        -1.039866
 C         3.635464        -0.722849         0.277203
 O         2.290154        -0.984986        -0.298198
 H        -0.186738        -0.953912         0.864862
 H        -0.717741         0.488878         0.101506
 H        -0.388102        -0.871953        -0.848449
 H         1.779288         1.799752         1.600643
 H         1.392811         0.153205         2.291565
 H         4.145690         0.389175         2.251872
 H         5.167337         0.795035        -0.219232
 H         3.332665         2.183908        -1.525597
 H         3.208235         0.514163        -2.190413
 H         4.208235        -1.669975         0.221221
