19
Iteration:  3039
 C        -0.046423        -0.351287        -0.104048
 C         1.448321         0.130174         0.049739
 C         2.042523         0.675368         1.342127
 C         3.502436         0.295359         1.282723
 C         4.083658         0.627963        -0.134576
 C         3.158860         1.548012        -1.046830
 O         1.806490         0.964700        -1.148176
 C         3.467081        -0.796041         0.265947
 O         2.178574        -1.022675        -0.107208
 H        -0.228824        -1.026995         0.797975
 H        -0.794496         0.414927        -0.073130
 H        -0.169915        -0.966898        -0.945635
 H         1.927357         1.699399         1.512888
 H         1.496703         0.101358         2.183934
 H         4.044005         0.377530         2.250105
 H         5.145134         0.877455        -0.421047
 H         2.925191         2.490894        -0.606988
 H         3.681470         1.683182        -2.002960
 H         4.140794        -1.652371         0.074119
