19
Iteration:  1731charge 0 multiplicity 1
 C        -0.016957        -0.233439        -0.070192
 C         1.462420         0.069017         0.006639
 C         1.953439         0.673940         1.381836
 C         3.534481         0.528519         1.182688
 C         4.041703         0.538425        -0.257517
 C         3.161626         1.380588        -1.121171
 O         1.758962         0.990059        -0.957799
 C         3.509412        -0.734832         0.335040
 O         2.258906        -1.126431        -0.134574
 H        -0.291308        -1.117011         0.496798
 H        -0.519694         0.493533         0.488288
 H        -0.431745        -0.460806        -1.105482
 H         1.422202         1.682985         1.438632
 H         1.686650        -0.000088         2.254154
 H         4.167446         0.693831         2.057433
 H         5.058135         0.757460        -0.514933
 H         3.277587         2.446755        -0.902999
 H         3.296598         1.294032        -2.229793
 H         4.103943        -1.652056         0.556146
