19
Iteration:  2734
 C        -0.034662        -0.238699        -0.117736
 C         1.472584         0.076613         0.093803
 C         1.890005         0.517084         1.482074
 C         3.421879         0.387470         1.343628
 C         3.955432         0.678915        -0.115926
 C         3.210066         1.241676        -1.331869
 O         1.812538         1.154252        -1.018575
 C         3.581108        -0.721770         0.268503
 O         2.287808        -1.034323        -0.159634
 H        -0.277868        -1.207353         0.152381
 H        -0.662833         0.457782         0.481486
 H        -0.363980        -0.060340        -1.211209
 H         1.646419         1.504692         1.709519
 H         1.738250        -0.189058         2.234122
 H         4.207417         0.519525         2.114925
 H         5.003228         1.014932        -0.044679
 H         3.383017         2.413156        -1.529507
 H         3.353777         0.572259        -2.209467
 H         4.217157        -1.607754         0.235174
