19
Iteration:   644
 C        -0.067378        -0.248237         0.096847
 C         1.438381         0.084179        -0.030198
 C         2.035085         0.712300         1.236274
 C         3.505872         0.417294         1.317435
 C         4.015930         0.607866        -0.128854
 C         3.155781         1.427483        -1.097445
 O         1.728201         0.954098        -1.113569
 C         3.528211        -0.722875         0.322975
 O         2.292985        -1.132272        -0.188562
 H        -0.437035        -0.701771         1.017969
 H        -0.471896         0.664906        -0.172654
 H        -0.185200        -0.922647        -0.744602
 H         1.718610         1.850433         1.357342
 H         1.570611         0.237201         2.113287
 H         4.068674         0.329770         2.250591
 H         5.078181         0.584184        -0.453517
 H         3.241295         2.505449        -0.874434
 H         3.442866         1.183325        -2.216299
 H         4.099065        -1.593510         0.495374
