19
Iteration:    59charge 0 multiplicity 1
 C         0.008648        -0.216507        -0.081191
 C         1.505893        -0.053563         0.056746
 C         1.938183         0.769792         1.346957
 C         3.462730         0.368693         1.279686
 C         4.079730         0.699545        -0.147910
 C         3.108728         1.242785        -1.224624
 O         1.694090         1.072190        -0.912299
 C         3.570049        -0.688475         0.325710
 O         2.292707        -1.128447        -0.233979
 H        -0.473892        -1.011572         0.695836
 H        -0.522407         0.769161         0.112439
 H        -0.260971        -0.489926        -1.157814
 H         1.714953         1.748899         1.112682
 H         1.505874         0.503418         2.352460
 H         4.082995         0.240557         2.206481
 H         5.190813         0.792474        -0.144657
 H         3.228835         2.367454        -1.388941
 H         3.348197         0.753523        -2.134143
 H         4.116891        -1.616055         0.571182
