19
Iteration:  4225charge 0 multiplicity 1
 C         0.038932        -0.317885        -0.072852
 C         1.527565         0.109078        -0.035149
 C         1.960632         0.635877         1.380932
 C         3.387931         0.406744         1.248948
 C         4.026515         0.635618        -0.140976
 C         3.215316         1.521086        -1.062666
 O         1.826330         1.013666        -1.046065
 C         3.479371        -0.815969         0.291753
 O         2.161417        -1.093701        -0.183385
 H        -0.157934        -0.942154         0.843936
 H        -0.669035         0.538076        -0.296122
 H        -0.098989        -1.082739        -0.832858
 H         1.661448         1.664142         1.383517
 H         1.512214         0.125684         2.293956
 H         4.120710         0.386611         2.028877
 H         5.124845         0.750699        -0.193786
 H         3.306998         2.483578        -0.689554
 H         3.416912         1.557518        -2.157981
 H         4.148280        -1.669016         0.514939
