19
Iteration:  4408
 C        -0.017218        -0.153508        -0.179863
 C         1.488372         0.020196         0.005900
 C         1.907791         0.569106         1.465461
 C         3.466651         0.383385         1.287028
 C         3.972271         0.633940        -0.152112
 C         3.098017         1.413313        -1.146976
 O         1.750072         1.068708        -0.926633
 C         3.637703        -0.717621         0.233144
 O         2.320632        -1.173095        -0.174833
 H        -0.444979        -0.665434         0.659331
 H        -0.344721         0.899831        -0.440083
 H        -0.324971        -0.754453        -1.072754
 H         1.725703         1.610890         1.619649
 H         1.401843         0.060159         2.319923
 H         4.077640         0.332137         2.128301
 H         5.024711         0.868308        -0.348447
 H         3.325341         2.494276        -1.149109
 H         3.259673         1.129152        -2.218271
 H         4.333583        -1.469251         0.525560
