19
Iteration:   761
 C        -0.012927        -0.203762         0.014569
 C         1.492751         0.148845         0.045485
 C         1.959068         0.690746         1.350487
 C         3.494930         0.396005         1.296897
 C         3.987938         0.681669        -0.096420
 C         3.172316         1.169876        -1.192517
 O         1.699922         1.047006        -1.088106
 C         3.547592        -0.779812         0.266505
 O         2.269398        -1.047595        -0.171783
 H        -0.137907        -1.184859         0.693636
 H        -0.731197         0.575395         0.301235
 H        -0.172761        -0.574251        -1.031056
 H         1.714305         1.707897         1.577701
 H         1.730578         0.112029         2.284315
 H         4.032376         0.415193         2.259922
 H         5.038978         0.871060        -0.363120
 H         3.308081         2.278124        -1.379965
 H         3.445941         0.667446        -2.098943
 H         4.365129        -1.470881         0.240480
