19
Iteration:  3522charge 0 multiplicity 1
 C         0.083829        -0.314521        -0.191769
 C         1.465933         0.182531         0.009571
 C         1.939642         0.608553         1.447818
 C         3.495386         0.363642         1.337271
 C         3.987105         0.636010        -0.153545
 C         3.177013         1.330004        -1.160021
 O         1.745119         1.092002        -0.958739
 C         3.496395        -0.713712         0.267294
 O         2.215380        -1.090430        -0.183729
 H        -0.273331        -0.928526         0.666600
 H        -0.538595         0.531813        -0.383066
 H         0.028972        -0.909283        -1.066921
 H         1.777252         1.691462         1.629445
 H         1.552577         0.010215         2.198027
 H         3.990609         0.376346         2.287650
 H         5.056249         0.730659        -0.164089
 H         3.586013         2.490272        -1.070164
 H         3.371360         1.050865        -2.201512
 H         4.139140        -1.549199         0.254219
