19
Iteration:  2328
 C        -0.013673        -0.355997        -0.073179
 C         1.409124         0.212353         0.029209
 C         2.034732         0.697494         1.431231
 C         3.466871         0.429465         1.244304
 C         4.015600         0.573176        -0.197864
 C         3.174330         1.283522        -1.154036
 O         1.774891         1.101294        -1.013885
 C         3.518135        -0.773756         0.236335
 O         2.223243        -1.068786        -0.100635
 H         0.022454        -1.343282         0.483028
 H        -0.917034         0.254029         0.282623
 H        -0.039192        -0.406868        -1.219772
 H         1.703899         1.754866         1.634553
 H         1.574210         0.061052         2.256868
 H         4.202298         0.434401         2.104359
 H         5.097787         0.798122        -0.324222
 H         3.218473         2.392438        -1.111086
 H         3.501909         0.955219        -2.185131
 H         4.206858        -1.583592         0.269379
