19
Iteration:  3246charge 0 multiplicity 1
 C        -0.032892        -0.227630        -0.058626
 C         1.465384         0.041577         0.011000
 C         1.985393         0.689115         1.281895
 C         3.411184         0.382618         1.252717
 C         3.959144         0.588783        -0.176507
 C         3.131704         1.505792        -0.915444
 O         1.829675         0.959137        -1.072931
 C         3.571013        -0.771405         0.221231
 O         2.250874        -1.142273        -0.181933
 H        -0.344687        -1.022995         0.623808
 H        -0.521637         0.669850         0.249726
 H        -0.120379        -0.496657        -1.052622
 H         1.926454         1.706010         1.302478
 H         1.447775         0.243391         2.129926
 H         4.057566         0.439305         2.137651
 H         5.065641         0.864182        -0.463217
 H         3.343179         2.490712        -0.274330
 H         3.525644         1.702533        -1.943145
 H         4.244611        -1.556093         0.513263
