19
Iteration:  4056charge 0 multiplicity 1
 C         0.008985        -0.173404        -0.083328
 C         1.493999         0.110775         0.002902
 C         1.993145         0.630545         1.355652
 C         3.502539         0.309096         1.258930
 C         4.008304         0.670780        -0.163209
 C         3.067102         1.565845        -0.908414
 O         1.915544         0.805045        -1.222212
 C         3.492031        -0.725954         0.265389
 O         2.183777        -1.097945        -0.134318
 H        -0.238807        -0.579901         0.856456
 H        -0.584998         0.757432        -0.223498
 H        -0.478276        -0.824970        -0.921400
 H         1.613010         1.641417         1.636780
 H         1.540310        -0.058045         2.061881
 H         4.068375         0.298883         2.201574
 H         4.996713         0.712275        -0.225778
 H         2.896779         2.457208        -0.302093
 H         3.412119         1.853176        -1.920605
 H         4.205182        -1.605929         0.343496
