19
Iteration:  3787
 C        -0.064272        -0.153893        -0.227018
 C         1.448143         0.020917         0.028503
 C         1.956293         0.544111         1.418380
 C         3.470721         0.424713         1.321491
 C         4.057672         0.674550        -0.102775
 C         3.104131         1.191499        -1.212167
 O         1.736868         1.145624        -0.883254
 C         3.633533        -0.683369         0.335188
 O         2.304077        -1.077183        -0.257662
 H        -0.467206        -0.998087         0.227295
 H        -0.614757         0.645358         0.267379
 H        -0.344781        -0.274379        -1.336346
 H         1.497253         1.532838         1.702493
 H         1.700963        -0.204602         2.144517
 H         4.066551         0.392803         2.258188
 H         5.182055         1.023058        -0.196445
 H         3.536812         2.131237        -1.347102
 H         3.198612         0.655594        -2.219868
 H         4.123491        -1.589061         0.566069
