19
Iteration:   828charge 0 multiplicity 1
 C         0.017134        -0.255607        -0.084304
 C         1.466080         0.140222         0.067576
 C         2.127635         0.777346         1.439589
 C         3.508851         0.307413         1.237867
 C         3.999262         0.683541        -0.181417
 C         3.057445         1.477751        -1.124077
 O         1.752171         0.865860        -1.200090
 C         3.531402        -0.813585         0.307293
 O         2.167595        -1.076782        -0.049467
 H        -0.455069        -0.896225         0.746365
 H        -0.647524         0.579541        -0.233287
 H        -0.120256        -1.002295        -0.945756
 H         2.099536         1.917407         1.403142
 H         1.651212         0.346306         2.345710
 H         4.255956         0.171474         2.022806
 H         5.125485         0.807225        -0.308425
 H         2.999135         2.539354        -0.653947
 H         3.560525         1.490198        -2.065236
 H         4.122968        -1.761393         0.276689
