19
Iteration:  2547
 C        -0.029821        -0.316270        -0.130618
 C         1.463570         0.146182         0.062099
 C         1.946010         0.538154         1.416620
 C         3.452129         0.459907         1.306582
 C         4.046528         0.591223        -0.199237
 C         3.133921         1.235459        -1.218788
 O         1.792748         1.278072        -0.932422
 C         3.505237        -0.729191         0.331613
 O         2.287730        -1.092024        -0.188502
 H        -0.103112        -1.465014         0.067431
 H        -0.685483         0.299638         0.509760
 H        -0.432065        -0.088758        -1.114536
 H         1.669121         1.539721         1.693824
 H         1.578937        -0.238580         2.128105
 H         4.105356         0.552299         2.111284
 H         5.065553         0.822052        -0.404112
 H         3.510034         2.200915        -1.701433
 H         3.411560         0.498355        -2.137231
 H         4.187897        -1.563754         0.516275
