19
Iteration:  4163charge 0 multiplicity 1
 C        -0.003111        -0.191233        -0.161360
 C         1.500158         0.029055         0.023080
 C         1.855302         0.593891         1.526514
 C         3.347389         0.459367         1.239349
 C         3.970537         0.682368        -0.108823
 C         3.144002         1.069041        -1.269582
 O         1.791872         1.197749        -0.775124
 C         3.625527        -0.717355         0.357363
 O         2.374414        -1.078606        -0.373338
 H        -0.493796        -0.983805         0.231705
 H        -0.521949         0.703143         0.104984
 H         0.005013        -0.260104        -1.265983
 H         1.406899         1.551015         1.483198
 H         1.483512         0.014358         2.333603
 H         3.891797         0.622546         2.161847
 H         4.923458         0.941148        -0.119276
 H         3.589167         2.165262        -1.582836
 H         3.213542         0.400753        -2.096708
 H         4.374804        -1.531501         0.399933
