19
Iteration:  2512charge 0 multiplicity 1
 C        -0.052283        -0.061048        -0.102077
 C         1.423970         0.028492         0.068232
 C         1.988616         0.633890         1.436253
 C         3.446973         0.397395         1.229287
 C         3.994367         0.686012        -0.093080
 C         3.111779         1.352542        -1.089723
 O         1.787653         0.871461        -1.023811
 C         3.600525        -0.729205         0.231205
 O         2.324553        -1.130630        -0.217195
 H        -0.518757        -1.054195         0.162382
 H        -0.549093         0.655044         0.593372
 H        -0.185058         0.151311        -1.138231
 H         1.755789         1.714211         1.450789
 H         1.404671         0.184720         2.235712
 H         4.085420         0.558219         2.133215
 H         4.995151         1.082969        -0.211559
 H         3.113959         2.487804        -1.119802
 H         3.471665         0.873179        -2.118201
 H         4.273646        -1.588541         0.255274
