19
Iteration:  3389charge 0 multiplicity 1
 C        -0.043995        -0.346464        -0.149117
 C         1.495124         0.085302         0.016124
 C         1.939936         0.632891         1.342658
 C         3.500613         0.371222         1.289051
 C         4.021483         0.541382        -0.136461
 C         3.134845         1.273851        -1.123722
 O         1.720884         1.334884        -0.837159
 C         3.573671        -0.752131         0.334745
 O         2.299789        -1.088113        -0.293850
 H        -0.410251        -1.015610         0.577187
 H        -0.773459         0.488386        -0.209510
 H         0.018174        -0.969781        -1.107243
 H         1.663093         1.691133         1.342996
 H         1.474652         0.126676         2.178950
 H         4.033769         0.478300         2.238875
 H         5.241369         0.927086        -0.246952
 H         3.286211         2.301928        -1.284322
 H         3.307004         0.703402        -2.105872
 H         4.176046        -1.715619         0.385686
