19
Iteration:   795
 C        -0.032299        -0.170231        -0.053226
 C         1.456328         0.033195         0.081137
 C         1.995612         0.704915         1.354094
 C         3.450860         0.488670         1.080698
 C         4.036931         0.597912        -0.240771
 C         3.175096         1.399819        -1.125780
 O         1.756172         1.008241        -0.994660
 C         3.554029        -0.802499         0.348474
 O         2.252018        -1.205171        -0.070926
 H        -0.388472        -0.828454         0.818501
 H        -0.540242         0.767372        -0.081385
 H        -0.136465        -0.663948        -1.074092
 H         1.511170         1.704709         1.287642
 H         1.560508         0.161120         2.216991
 H         3.972062         0.549906         2.027361
 H         5.128143         0.828187        -0.473380
 H         3.108595         2.470526        -0.771457
 H         3.564386         1.426017        -2.126107
 H         4.257747        -1.667832         0.440272
