19
Iteration:  4795
 C         0.083089        -0.280144        -0.153093
 C         1.557452         0.090140        -0.031795
 C         1.936601         0.600215         1.435294
 C         3.406885         0.408518         1.247016
 C         3.988557         0.576978        -0.159078
 C         3.120693         1.296725        -1.172521
 O         1.739296         1.227759        -0.794439
 C         3.539318        -0.827403         0.319974
 O         2.271114        -1.037199        -0.288587
 H        -0.264550        -1.007104         0.730336
 H        -0.798744         0.426651        -0.026039
 H        -0.033587        -0.878142        -1.097332
 H         1.455834         1.656569         1.503701
 H         1.784380        -0.090125         2.276630
 H         4.143602         0.631724         2.019102
 H         5.140393         0.810246        -0.294901
 H         3.461329         2.294775        -1.251401
 H         3.186724         1.134301        -2.291310
 H         3.974006        -1.773479         0.481792
