19
Iteration:  2496
 C        -0.058067        -0.158268        -0.048806
 C         1.512770         0.087742        -0.004737
 C         2.001910         0.639951         1.356675
 C         3.501702         0.339839         1.365195
 C         4.038607         0.670204        -0.089312
 C         3.125530         1.444063        -1.137875
 O         1.754116         0.911908        -1.183931
 C         3.552265        -0.698288         0.272621
 O         2.220512        -1.155773        -0.120738
 H        -0.263086        -1.074923         0.515447
 H        -0.553903         0.663634         0.441856
 H        -0.566343        -0.150490        -1.066694
 H         1.673261         1.675730         1.542972
 H         1.625128        -0.028247         2.161017
 H         4.161929         0.237313         2.205806
 H         5.160613         0.725700        -0.312640
 H         3.016071         2.470977        -0.833665
 H         3.550902         1.579575        -2.084844
 H         4.310901        -1.482027         0.283091
