19
Iteration:  3025charge 0 multiplicity 1
 C        -0.053356        -0.318874        -0.124268
 C         1.444900         0.107465        -0.006432
 C         1.998698         0.663249         1.419377
 C         3.506411         0.403249         1.218514
 C         3.986776         0.629999        -0.146301
 C         3.180738         1.466012        -1.028800
 O         1.783978         1.016482        -1.026009
 C         3.540702        -0.742133         0.255217
 O         2.212085        -1.130090        -0.170927
 H        -0.330303        -0.846618         0.769805
 H        -0.531872         0.667465        -0.279595
 H        -0.133368        -0.951231        -1.051307
 H         1.677373         1.711269         1.602179
 H         1.696449         0.108409         2.315937
 H         4.221804         0.362934         2.012262
 H         5.018338         0.586787        -0.148550
 H         3.401344         2.528934        -0.864416
 H         3.394772         1.368816        -2.075780
 H         4.192991        -1.601588         0.368574
