19
Iteration:  4021charge 0 multiplicity 1
 C        -0.086198        -0.173915        -0.161891
 C         1.458313         0.047398        -0.052693
 C         1.982943         0.608210         1.340863
 C         3.482745         0.303122         1.320493
 C         3.968359         0.636176        -0.112842
 C         3.096304         1.454125        -1.061630
 O         1.794195         1.033837        -0.991721
 C         3.602964        -0.709054         0.276201
 O         2.294398        -1.161216        -0.150464
 H        -0.589902        -0.704010         0.663911
 H        -0.405837         0.863795        -0.089056
 H        -0.374106        -0.653270        -1.086255
 H         1.827548         1.660865         1.353118
 H         1.628390         0.149305         2.272661
 H         4.187358         0.437920         2.176621
 H         5.093464         0.724941        -0.235122
 H         3.046221         2.508578        -1.020874
 H         3.555391         1.230562        -2.034032
 H         4.355150        -1.553635         0.241461
