19
Iteration:  2773
 C        -0.099733        -0.257446        -0.203511
 C         1.422135         0.001040         0.049486
 C         1.959832         0.621008         1.427876
 C         3.453669         0.460398         1.240154
 C         4.081849         0.597318        -0.130269
 C         3.126827         1.142518        -1.223141
 O         1.725090         1.254496        -0.787324
 C         3.614265        -0.735272         0.333069
 O         2.363493        -1.019890        -0.270177
 H        -0.328726        -1.257187         0.305099
 H        -0.677389         0.605910         0.133261
 H        -0.253196        -0.257194        -1.301404
 H         1.370219         1.667071         1.436321
 H         1.625583        -0.148687         2.234814
 H         4.012893         0.526958         2.142619
 H         5.134331         0.913967        -0.158412
 H         3.454524         2.012237        -1.696196
 H         3.165672         0.485865        -2.145635
 H         4.183459        -1.620065         0.601204
