19
Iteration:  2047
 C        -0.031112        -0.129476         0.017045
 C         1.479102         0.003089         0.025041
 C         1.978716         0.654067         1.331205
 C         3.442867         0.426723         1.208684
 C         4.048959         0.641625        -0.175273
 C         3.105390         1.455920        -1.143226
 O         1.763540         0.937187        -1.032808
 C         3.554169        -0.798630         0.287572
 O         2.274697        -1.184327        -0.140491
 H        -0.404448        -0.728592         0.844566
 H        -0.337837         0.962951         0.098946
 H        -0.518191        -0.387991        -0.913434
 H         1.774513         1.716814         1.317475
 H         1.644079         0.242093         2.243387
 H         4.075525         0.633150         2.042145
 H         5.168846         0.689831        -0.260109
 H         3.031175         2.581044        -0.893102
 H         3.448724         1.383512        -2.145223
 H         4.374801        -1.566526         0.371311
