19
Iteration:  3513
 C         0.030561        -0.340338        -0.144075
 C         1.465357         0.154644         0.017979
 C         1.992997         0.638831         1.391253
 C         3.397469         0.307215         1.311153
 C         4.048287         0.613806        -0.111334
 C         3.211465         1.432609        -1.112895
 O         1.752681         1.105242        -1.064343
 C         3.536443        -0.780097         0.212083
 O         2.204397        -1.058889        -0.089031
 H        -0.261811        -1.022352         0.700566
 H        -0.714003         0.417924        -0.302763
 H         0.111630        -0.868822        -1.041367
 H         1.716938         1.686072         1.688075
 H         1.561832         0.072708         2.203678
 H         4.039061         0.465410         2.171293
 H         5.038815         0.855316        -0.148612
 H         3.341103         2.527765        -1.041527
 H         3.347224         1.160348        -2.129670
 H         4.119567        -1.726031         0.133743
