19
Iteration:  1005charge 0 multiplicity 1
 C         0.070225        -0.187654        -0.057361
 C         1.491167         0.044862         0.053841
 C         2.002671         0.736569         1.394813
 C         3.467016         0.311608         1.304633
 C         4.069765         0.699445        -0.127478
 C         3.091452         1.370221        -1.214753
 O         1.635546         0.979535        -1.036276
 C         3.540068        -0.776842         0.244510
 O         2.282330        -1.140781        -0.131160
 H        -0.482431        -0.631455         0.749406
 H        -0.397292         0.895229        -0.166086
 H        -0.138765        -0.622023        -1.029760
 H         1.822270         1.806615         1.407601
 H         1.563244         0.337667         2.249812
 H         3.911805         0.374558         2.316824
 H         5.125102         0.874241        -0.133359
 H         3.259948         2.514560        -1.219185
 H         3.354943         0.874125        -2.252353
 H         4.310545        -1.603975         0.128076
