19
Iteration:  2630
 C        -0.044277        -0.140340        -0.101319
 C         1.520723         0.081219         0.043272
 C         1.925764         0.517735         1.508532
 C         3.450114         0.408786         1.246758
 C         3.999471         0.663405        -0.186413
 C         3.162449         1.469836        -1.138313
 O         1.811406         0.942319        -1.079025
 C         3.553830        -0.712821         0.215725
 O         2.259822        -1.130123        -0.139177
 H        -0.545672        -0.308925         0.906405
 H        -0.523620         0.778883        -0.463691
 H        -0.292307        -0.945086        -0.733921
 H         1.733270         1.548419         1.954713
 H         1.536014        -0.246660         2.217509
 H         4.144692         0.148001         2.068368
 H         5.071737         0.637168        -0.273111
 H         2.962241         2.522383        -0.852337
 H         3.522051         1.611324        -2.154435
 H         4.244450        -1.572210         0.306035
