19
Iteration:   871
 C        -0.091707        -0.229674         0.098233
 C         1.394082         0.009501        -0.020636
 C         1.933165         0.682788         1.255065
 C         3.502746         0.401741         1.157887
 C         4.080816         0.568202        -0.184618
 C         3.183784         1.441369        -1.111867
 O         1.765301         1.086531        -1.076423
 C         3.570284        -0.753528         0.323841
 O         2.279891        -1.185008        -0.094655
 H        -0.271444        -0.900276         1.022528
 H        -0.414756         0.809543         0.191563
 H        -0.517060        -0.737603        -0.841750
 H         1.757644         1.672156         1.190165
 H         1.453302         0.255151         2.122852
 H         3.979291         0.565679         2.112275
 H         5.163232         0.846889        -0.278688
 H         3.214824         2.498634        -0.798473
 H         3.513338         1.274801        -2.169924
 H         4.327029        -1.534609         0.515099
