19
Iteration:   629
 C        -0.082466        -0.266359         0.108055
 C         1.435074         0.066854         0.003348
 C         1.927263         0.743837         1.289080
 C         3.449675         0.452946         1.206555
 C         4.100989         0.516044        -0.167758
 C         3.245065         1.454123        -1.045325
 O         1.718248         1.008179        -1.200706
 C         3.586711        -0.788241         0.285735
 O         2.277039        -1.166421        -0.148871
 H        -0.141760        -0.683010         1.138941
 H        -0.850014         0.558779         0.170716
 H        -0.610292        -0.971442        -0.517088
 H         1.675131         1.758022         1.181630
 H         1.420163         0.318184         2.252477
 H         4.053915         0.771520         2.055846
 H         5.138212         0.732606        -0.165228
 H         3.177794         2.430689        -0.519823
 H         3.691832         1.656116        -1.975113
 H         4.380389        -1.573111         0.348812
