19
Iteration:   823charge 0 multiplicity 1
 C        -0.019096        -0.262249        -0.111649
 C         1.458691         0.104302         0.039641
 C         2.146418         0.781334         1.434735
 C         3.550415         0.315173         1.255448
 C         4.001548         0.645147        -0.177503
 C         3.072421         1.493583        -1.137130
 O         1.750873         0.883510        -1.159100
 C         3.520653        -0.814120         0.258414
 O         2.179596        -1.072466        -0.010914
 H        -0.338048        -0.831468         0.773760
 H        -0.646395         0.648490        -0.233562
 H        -0.118672        -0.931450        -0.935424
 H         1.914764         1.837281         1.399214
 H         1.575891         0.292573         2.218915
 H         4.157442         0.368070         2.182979
 H         5.026716         0.850506        -0.352239
 H         2.894729         2.458064        -0.707200
 H         3.597624         1.521055        -2.144310
 H         4.081086        -1.727792         0.321723
