19
Iteration:  1775
 C         0.104061        -0.287951        -0.018462
 C         1.485265         0.159031         0.006748
 C         1.965371         0.665383         1.525724
 C         3.447122         0.368490         1.352404
 C         3.976362         0.713302        -0.088059
 C         3.047489         1.044902        -1.339501
 O         1.754907         1.192189        -0.957018
 C         3.591679        -0.716305         0.280846
 O         2.253794        -0.991462        -0.308692
 H         0.155806        -1.003302         0.742351
 H        -0.672026         0.349220         0.281685
 H        -0.196760        -0.799352        -0.999566
 H         1.768242         1.781450         1.483827
 H         1.234726         0.225922         2.273543
 H         4.222198         0.095853         2.147084
 H         5.052401         0.802349        -0.048429
 H         3.122362         1.987691        -1.858561
 H         3.358719         0.269823        -2.109866
 H         4.212565        -1.640633         0.251112
