19
Iteration:  4452charge 0 multiplicity 1
 C         0.062778        -0.362615        -0.041546
 C         1.468431         0.136706         0.006445
 C         1.971242         0.809991         1.370172
 C         3.477598         0.289894         1.254877
 C         4.025379         0.570181        -0.162892
 C         3.135944         1.519881        -0.943798
 O         1.846248         0.994344        -1.137814
 C         3.453795        -0.779645         0.247430
 O         2.201990        -1.098695        -0.201526
 H         0.056472        -1.044321         0.774449
 H        -0.767980         0.405651         0.041475
 H        -0.242458        -0.999385        -0.936041
 H         1.630984         1.806279         1.414611
 H         1.461855         0.284308         2.242467
 H         4.114343         0.240081         2.135533
 H         5.070853         0.647727        -0.384673
 H         2.879869         2.427462        -0.433445
 H         3.535601         1.954235        -1.877296
 H         4.155387        -1.640979         0.223916
