19
Iteration:  4858
 C         0.018033        -0.096181        -0.016155
 C         1.501871         0.051898        -0.062062
 C         1.961263         0.667896         1.388573
 C         3.424945         0.332170         1.262422
 C         3.942922         0.606025        -0.151617
 C         3.078269         1.523050        -0.956255
 O         1.784665         0.910157        -1.091308
 C         3.539273        -0.771743         0.198701
 O         2.330176        -1.187168        -0.203020
 H        -0.339089        -1.072225         0.500218
 H        -0.295985         0.880533         0.374455
 H        -0.170713        -0.183595        -1.005846
 H         1.727524         1.726133         1.338157
 H         1.637314         0.085664         2.336343
 H         4.023400         0.339683         2.163260
 H         5.125675         0.732018        -0.468202
 H         2.861256         2.535764        -0.343874
 H         3.526257         1.800136        -1.952414
 H         4.274380        -1.556215         0.343757
