19
Iteration:  2125
 C        -0.009429        -0.196214        -0.025573
 C         1.470936         0.038431         0.082718
 C         1.971213         0.706350         1.367808
 C         3.444936         0.442533         1.198993
 C         4.112980         0.598915        -0.188780
 C         3.185711         1.337207        -1.171372
 O         1.691583         0.979362        -0.979573
 C         3.547249        -0.739269         0.277788
 O         2.242825        -1.094929        -0.169608
 H        -0.270059        -1.147598         0.570384
 H        -0.565583         0.706869         0.401443
 H        -0.268377        -0.393088        -1.044901
 H         1.539862         1.665652         1.432587
 H         1.717407         0.122560         2.236127
 H         4.123087         0.365916         2.073764
 H         5.156258         0.944838        -0.364837
 H         3.243477         2.451277        -1.189242
 H         3.275458         1.052286        -2.171525
 H         4.219922        -1.552027         0.492167
