19
Iteration:  1421
 C        -0.051852        -0.278976        -0.072084
 C         1.453459         0.033102         0.137158
 C         1.953777         0.759344         1.302056
 C         3.485688         0.384918         1.263203
 C         4.068813         0.582667        -0.193527
 C         3.134660         1.361046        -1.142556
 O         1.693675         1.036874        -0.940655
 C         3.613260        -0.761557         0.337933
 O         2.293772        -1.091043        -0.253475
 H        -0.458967        -1.022690         0.569483
 H        -0.657132         0.576698         0.186599
 H        -0.197873        -0.525528        -1.149094
 H         1.692080         1.880975         1.238421
 H         1.614548         0.273277         2.256263
 H         4.257194         0.610333         1.954044
 H         5.073680         0.934612        -0.139361
 H         3.118844         2.478456        -1.226458
 H         3.456806         0.987467        -2.116435
 H         4.214331        -1.671615         0.496353
