19
Iteration:  4327
 C         0.048682        -0.315995        -0.149412
 C         1.446884         0.094441         0.022100
 C         1.957660         0.696962         1.368750
 C         3.465061         0.399593         1.301801
 C         4.010113         0.567939        -0.091702
 C         3.150097         1.299132        -1.131990
 O         1.704861         1.154638        -0.908062
 C         3.508479        -0.762521         0.285666
 O         2.317670        -1.070990        -0.285754
 H        -0.115014        -1.262746         0.348361
 H        -0.637014         0.306391         0.349321
 H        -0.194960        -0.397400        -1.206699
 H         1.717960         1.787301         1.319702
 H         1.507160         0.253705         2.232107
 H         4.127450         0.385834         2.226303
 H         5.126109         0.748633        -0.127855
 H         3.409273         2.296385        -1.000702
 H         3.187840         0.965572        -2.176321
 H         4.271797        -1.545881         0.422008
