19
Iteration:   288charge 0 multiplicity 1
 C         0.026204        -0.289883        -0.016806
 C         1.487867         0.184864        -0.027703
 C         1.857302         0.588295         1.336675
 C         3.464574         0.478305         1.239278
 C         4.094799         0.614492        -0.140634
 C         3.173874         1.225606        -1.205876
 O         1.755616         1.109513        -0.965847
 C         3.542168        -0.705562         0.303611
 O         2.267192        -1.051763        -0.183221
 H        -0.232859        -0.775157         0.927186
 H        -0.735626         0.461466         0.036313
 H        -0.319271        -1.023119        -0.724959
 H         1.430324         1.524455         1.548746
 H         1.731019        -0.121889         2.249079
 H         3.950561         0.254966         2.178755
 H         5.153186         0.696302        -0.291692
 H         3.358147         2.285206        -1.295735
 H         3.236855         0.837387        -2.284399
 H         4.111144        -1.579732         0.722845
