19
Iteration:  3707charge 0 multiplicity 1
 C         0.038980        -0.193386        -0.126790
 C         1.471219         0.101106         0.003736
 C         1.898705         0.620359         1.364407
 C         3.435380         0.322748         1.267646
 C         4.065883         0.636514        -0.133676
 C         3.111879         1.416766        -1.057531
 O         1.760077         1.029415        -0.992197
 C         3.572996        -0.754359         0.277155
 O         2.280315        -1.127126        -0.201565
 H        -0.350704        -0.740623         0.875901
 H        -0.395924         0.814626        -0.239768
 H        -0.351280        -0.704400        -0.977912
 H         1.563167         1.734960         1.250907
 H         1.501828         0.117423         2.282811
 H         4.065441         0.276025         2.188855
 H         5.042549         0.856693        -0.303044
 H         3.324488         2.502313        -0.876018
 H         3.345064         1.210480        -2.116323
 H         4.276330        -1.679005         0.422276
