19
Iteration:  3829
 C         0.014290        -0.269968        -0.050579
 C         1.471500         0.089740        -0.035658
 C         1.985075         0.623090         1.380110
 C         3.420334         0.330629         1.335684
 C         4.020733         0.637079        -0.121463
 C         3.177478         1.476543        -1.102462
 O         1.812746         1.063928        -1.099774
 C         3.507842        -0.752662         0.253871
 O         2.209583        -1.139101        -0.157164
 H        -0.297924        -0.941178         0.734632
 H        -0.462086         0.735341        -0.046913
 H        -0.273726        -0.798935        -1.042236
 H         1.682855         1.749046         1.414910
 H         1.497136         0.026296         2.168952
 H         4.115960         0.251272         2.191793
 H         5.103234         0.844610        -0.177849
 H         2.983637         2.504165        -0.860793
 H         3.734393         1.393511        -2.031297
 H         4.197881        -1.551078         0.390063
