19
Iteration:   319
 C         0.041845        -0.192074        -0.212801
 C         1.476176         0.050283         0.144833
 C         1.975576         0.690233         1.430058
 C         3.505417         0.413387         1.270445
 C         3.973524         0.623112        -0.106964
 C         3.093363         1.285676        -1.199895
 O         1.700914         1.003244        -0.964233
 C         3.661636        -0.751096         0.218741
 O         2.239940        -1.090258        -0.102131
 H        -0.629809        -0.808459         0.426126
 H        -0.397871         0.736034        -0.313943
 H         0.004173        -0.463945        -1.215384
 H         1.688385         1.754077         1.264354
 H         1.482423         0.365376         2.438776
 H         4.092473         0.650940         2.155004
 H         5.011801         0.844456        -0.347351
 H         3.161190         2.355933        -1.128520
 H         3.231069         0.754899        -2.271796
 H         4.378312        -1.610396         0.080319
