19
Iteration:  1544charge 0 multiplicity 1
 C         0.069690        -0.347127        -0.058040
 C         1.457089         0.083100         0.117590
 C         1.911386         0.615690         1.461335
 C         3.416913         0.466464         1.227893
 C         4.092963         0.633671        -0.212528
 C         3.165680         1.249695        -1.269349
 O         1.760688         1.088847        -0.981692
 C         3.548854        -0.696785         0.289717
 O         2.198493        -1.008820        -0.205675
 H        -0.258389        -1.093502         0.707377
 H        -0.477539         0.582761         0.236167
 H        -0.205500        -0.695224        -1.036316
 H         1.607535         1.720030         1.711615
 H         1.756172         0.057779         2.376369
 H         4.025203         0.524675         2.184848
 H         5.183320         0.804424        -0.023311
 H         3.478485         2.290133        -1.428961
 H         3.269785         0.725537        -2.202958
 H         4.126275        -1.621112         0.338068
