19
Iteration:  2961charge 0 multiplicity 1
 C         0.068403        -0.278039        -0.064270
 C         1.448920         0.170935         0.026395
 C         1.874161         0.533365         1.440085
 C         3.397873         0.375290         1.272825
 C         4.066286         0.664177        -0.065304
 C         3.179567         1.124496        -1.249831
 O         1.755328         1.173439        -0.892436
 C         3.545094        -0.693582         0.273548
 O         2.258712        -0.917735        -0.272647
 H        -0.096519        -1.217147         0.364783
 H        -0.813573         0.366402         0.074869
 H        -0.052192        -0.550391        -1.139363
 H         1.628259         1.476759         1.942585
 H         1.661340        -0.385366         2.104858
 H         4.134704         0.471157         2.055616
 H         5.116749         0.777252        -0.149835
 H         3.359958         2.039400        -1.868701
 H         3.377497         0.293924        -2.031314
 H         4.298663        -1.477338         0.240154
