19
Iteration:  1757charge 0 multiplicity 1
 C         0.004461        -0.369177        -0.039637
 C         1.447652         0.163731         0.070515
 C         2.032966         0.739510         1.382436
 C         3.457991         0.292865         1.289351
 C         3.985248         0.655933        -0.105343
 C         3.155819         1.167075        -1.278688
 O         1.693473         1.150112        -0.950299
 C         3.581159        -0.724178         0.279236
 O         2.278380        -1.013889        -0.212951
 H        -0.337381        -1.331581         0.443681
 H        -0.640614         0.477595         0.469318
 H        -0.190324        -0.546271        -1.109381
 H         1.903544         1.798608         1.312002
 H         1.518900         0.290594         2.286216
 H         4.061087         0.548113         2.217578
 H         5.059870         0.958607        -0.215464
 H         3.426121         2.217353        -1.617779
 H         3.236268         0.495519        -2.122396
 H         4.234297        -1.564307         0.324742
