19
Iteration:  1423
 C        -0.020097        -0.252304        -0.075073
 C         1.439227         0.016212         0.137877
 C         1.955348         0.775223         1.303286
 C         3.496595         0.370793         1.267398
 C         4.053976         0.579109        -0.177080
 C         3.134871         1.375414        -1.150294
 O         1.689073         1.011402        -0.937401
 C         3.604173        -0.768022         0.321833
 O         2.300013        -1.092814        -0.253219
 H        -0.445761        -1.014483         0.543472
 H        -0.690377         0.615489         0.187351
 H        -0.179072        -0.544049        -1.105944
 H         1.623373         1.886637         1.235901
 H         1.588572         0.329843         2.209445
 H         4.261827         0.668248         1.961085
 H         5.057792         0.916621        -0.147656
 H         3.109660         2.519755        -1.199858
 H         3.430018         1.026253        -2.097308
 H         4.256506        -1.639118         0.478092
