19
Iteration:  3284
 C         0.021400        -0.327649        -0.078509
 C         1.492559         0.180148         0.009278
 C         2.057374         0.717108         1.327000
 C         3.495150         0.267870         1.268671
 C         3.990938         0.624088        -0.122527
 C         3.140824         1.513902        -0.947335
 O         1.807134         0.922102        -1.137315
 C         3.513260        -0.746827         0.219610
 O         2.153880        -1.075876        -0.135766
 H        -0.088690        -1.325867         0.386732
 H        -0.816371         0.351720         0.197795
 H        -0.290575        -0.362368        -1.175728
 H         1.811298         1.892992         1.428367
 H         1.617014         0.227782         2.226206
 H         4.038468         0.260981         2.232130
 H         4.980439         0.885581        -0.318738
 H         2.852996         2.530745        -0.599820
 H         3.624146         1.540948        -1.923850
 H         4.164458        -1.664193         0.345570
