19
Iteration:  1726charge 0 multiplicity 1
 C        -0.000000        -0.267182        -0.070955
 C         1.478832         0.065787         0.031972
 C         1.996845         0.643813         1.377998
 C         3.509480         0.495769         1.174113
 C         3.985132         0.548409        -0.297808
 C         3.165127         1.423519        -1.127862
 O         1.799730         0.965118        -0.986440
 C         3.503403        -0.706664         0.362236
 O         2.231293        -1.127450        -0.112497
 H        -0.446473        -1.078739         0.567512
 H        -0.474584         0.686423         0.399725
 H        -0.457442        -0.257667        -1.032295
 H         1.493423         1.579992         1.447027
 H         1.638979         0.024445         2.173029
 H         4.096796         0.779955         2.053506
 H         5.098241         0.585588        -0.427244
 H         3.094873         2.497702        -0.798700
 H         3.418360         1.459220        -2.209079
 H         4.185867        -1.502589         0.559871
