19
Iteration:  3177charge 0 multiplicity 1
 C         0.041711        -0.370606        -0.125901
 C         1.487663         0.077941         0.070114
 C         1.893779         0.587129         1.447245
 C         3.399522         0.395882         1.235737
 C         4.073530         0.614279        -0.131088
 C         3.132648         1.220153        -1.202306
 O         1.773149         1.270276        -0.854154
 C         3.537613        -0.706628         0.290427
 O         2.287549        -1.010750        -0.343163
 H        -0.444995        -0.917037         0.746142
 H        -0.527220         0.593620        -0.144646
 H        -0.162269        -0.953682        -1.072351
 H         1.564708         1.615987         1.666138
 H         1.615495        -0.093752         2.258556
 H         4.079567         0.381925         2.091133
 H         5.077476         0.699421         0.003962
 H         3.382893         2.320781        -1.416585
 H         3.358070         0.611272        -2.114458
 H         4.095428        -1.589245         0.673950
