19
Iteration:  1558charge 0 multiplicity 1
 C        -0.018406        -0.260438        -0.000730
 C         1.473163         0.140707         0.038515
 C         1.885221         0.561222         1.452822
 C         3.376631         0.502803         1.241618
 C         3.996074         0.599896        -0.247316
 C         3.216462         1.184114        -1.350976
 O         1.820785         1.145559        -0.835484
 C         3.556999        -0.685193         0.323517
 O         2.297389        -1.066936        -0.201230
 H        -0.002022        -1.197490         0.633392
 H        -0.827511         0.413476         0.180237
 H        -0.046413        -0.618446        -1.092037
 H         1.344367         1.424649         1.705361
 H         1.508964        -0.294510         2.013510
 H         4.111248         0.848814         1.908575
 H         5.042272         0.827156        -0.428196
 H         3.356104         2.291526        -1.504920
 H         3.371860         0.681923        -2.298530
 H         4.225086        -1.516923         0.535852
