19
Iteration:  2670charge 0 multiplicity 1
 C        -0.028653        -0.220764        -0.068261
 C         1.433360         0.123772        -0.058730
 C         2.066293         0.766281         1.281616
 C         3.484820         0.246541         1.300979
 C         4.058979         0.612580        -0.165407
 C         3.037915         1.566823        -0.914884
 O         1.775200         0.922450        -1.120011
 C         3.525346        -0.780792         0.207822
 O         2.280753        -1.195838        -0.095503
 H        -0.398609        -0.486466         0.870865
 H        -0.427397         0.783017        -0.325760
 H        -0.345199        -0.941153        -0.876027
 H         1.961087         1.813243         1.208508
 H         1.434485         0.487693         2.105314
 H         4.030660         0.130386         2.264683
 H         5.141121         0.818712        -0.313492
 H         2.973439         2.365629        -0.255099
 H         3.327814         1.800425        -1.921821
 H         4.278934        -1.556896         0.236556
