19
Iteration:  4319charge 0 multiplicity 1
 C        -0.066609        -0.328004        -0.112627
 C         1.448203         0.101464         0.032995
 C         1.944999         0.641789         1.360049
 C         3.462211         0.386817         1.244878
 C         4.044331         0.612516        -0.140548
 C         3.191340         1.386464        -1.154695
 O         1.719112         1.122115        -0.940323
 C         3.586425        -0.774441         0.360552
 O         2.271226        -1.072810        -0.241395
 H        -0.270692        -1.396352         0.228279
 H        -0.678037         0.489215         0.276911
 H        -0.196553        -0.411694        -1.180194
 H         1.732031         1.744017         1.512740
 H         1.515263         0.111699         2.203913
 H         4.087717         0.340689         2.128422
 H         5.244791         0.559320        -0.203925
 H         3.266795         2.480570        -1.017164
 H         3.660540         1.219742        -2.145670
 H         4.264689        -1.614950         0.564941
