19
Iteration:   442
 C        -0.028535        -0.250374        -0.113979
 C         1.466660         0.024867         0.078776
 C         2.010308         0.603819         1.431156
 C         3.505052         0.571934         1.170966
 C         3.977318         0.571272        -0.249987
 C         3.182279         1.464675        -1.167538
 O         1.793075         1.010715        -1.052707
 C         3.528125        -0.742154         0.387920
 O         2.178868        -1.192955        -0.081003
 H        -0.439502        -0.803137         0.691836
 H        -0.538007         0.699828        -0.270541
 H        -0.126440        -0.564447        -1.165293
 H         1.634203         1.549962         1.773363
 H         1.772632        -0.317192         2.210302
 H         4.132502         0.848093         2.013560
 H         5.089005         0.769154        -0.334627
 H         3.302689         2.578618        -0.905903
 H         3.563205         1.396965        -2.329934
 H         4.167099        -1.551184         0.558447
