19
Iteration:  4063
 C        -0.059842        -0.187677        -0.113570
 C         1.446223         0.085037        -0.067484
 C         2.010201         0.681012         1.349408
 C         3.523247         0.327490         1.276278
 C         3.983204         0.632927        -0.126580
 C         3.099099         1.586377        -0.894414
 O         1.891611         0.839511        -1.213793
 C         3.490144        -0.769854         0.283004
 O         2.222395        -1.128770        -0.113281
 H        -0.136072        -0.668092         0.894405
 H        -0.540751         0.776912        -0.084778
 H        -0.454770        -0.888837        -0.756827
 H         1.712256         1.676837         1.564187
 H         1.461635        -0.036040         1.988305
 H         4.162109         0.472147         2.172492
 H         5.081565         0.746263        -0.513970
 H         3.008711         2.483312        -0.249000
 H         3.516735         1.953196        -1.810979
 H         4.265631        -1.536207         0.088997
