19
Iteration:  1093
 C        -0.051821        -0.175360        -0.075689
 C         1.440965         0.013439         0.035661
 C         2.017417         0.785840         1.329617
 C         3.524470         0.420304         1.266153
 C         4.105168         0.619025        -0.142732
 C         3.074427         1.311648        -1.037931
 O         1.680045         0.947398        -1.022176
 C         3.581813        -0.722594         0.257112
 O         2.299859        -1.154719        -0.201275
 H        -0.428670        -1.009064         0.615089
 H        -0.514022         0.825282         0.179993
 H        -0.373731        -0.340454        -1.104388
 H         1.791205         1.813159         1.142638
 H         1.565118         0.555343         2.237876
 H         4.035144         0.174246         2.198244
 H         5.156559         0.945757        -0.293352
 H         3.035917         2.358638        -0.863739
 H         3.418656         1.233239        -2.123882
 H         4.134356        -1.649805         0.546656
