19
Iteration:  2555charge 0 multiplicity 1
 C        -0.000412        -0.361587        -0.139824
 C         1.452514         0.198297         0.040655
 C         1.934982         0.568186         1.444621
 C         3.473239         0.424501         1.258985
 C         4.002924         0.625345        -0.169874
 C         3.215723         1.183215        -1.273911
 O         1.777498         1.300086        -0.930749
 C         3.542327        -0.766538         0.331993
 O         2.230740        -1.012231        -0.187580
 H         0.111518        -1.434169         0.194181
 H        -0.714998         0.037086         0.600434
 H        -0.348031        -0.375410        -1.132008
 H         1.393319         1.459266         1.815417
 H         1.807454        -0.195878         2.221043
 H         4.100238         0.507261         2.165376
 H         5.070354         0.646834        -0.175788
 H         3.491079         2.174442        -1.466294
 H         3.167216         0.446187        -2.119786
 H         4.140383        -1.680744         0.426768
