19
Iteration:  4816
 C        -0.026742        -0.314784        -0.104713
 C         1.413034         0.119932         0.068777
 C         1.978358         0.634341         1.443841
 C         3.443190         0.324341         1.232423
 C         4.018702         0.618772        -0.120822
 C         3.222852         1.366147        -1.101035
 O         1.743653         1.125200        -0.987901
 C         3.524056        -0.715639         0.220883
 O         2.274258        -1.055233        -0.228610
 H        -0.198495        -1.145285         0.705091
 H        -0.795650         0.428267         0.228164
 H        -0.166948        -0.781957        -1.049446
 H         1.717223         1.726780         1.550856
 H         1.484576        -0.086839         2.110872
 H         4.085478         0.163627         2.089027
 H         5.195573         0.712157        -0.161674
 H         3.489370         2.451721        -1.096807
 H         3.559187         1.113012        -2.154724
 H         4.264786        -1.464723         0.118273
