19
Iteration:  4587charge 0 multiplicity 1
 C         0.005572        -0.352725        -0.089054
 C         1.479897         0.176630         0.002399
 C         2.000148         0.566189         1.399639
 C         3.472940         0.330325         1.363006
 C         4.021179         0.662075        -0.050518
 C         3.112397         1.227542        -1.169098
 O         1.706407         1.234304        -0.952584
 C         3.549906        -0.784104         0.262755
 O         2.264331        -0.968692        -0.297536
 H        -0.212508        -1.014126         0.872892
 H        -0.758357         0.403475        -0.309005
 H         0.158398        -0.912069        -0.998262
 H         1.822492         1.701465         1.552497
 H         1.380049         0.052040         2.189683
 H         4.003070        -0.004291         2.237785
 H         5.054464         1.019141        -0.257434
 H         3.404012         2.251206        -1.505441
 H         3.533447         0.640368        -2.012885
 H         4.181538        -1.657239         0.152669
