19
Iteration:   971charge 0 multiplicity 1
 C        -0.033634        -0.321389        -0.020297
 C         1.428326         0.159556         0.039922
 C         1.944351         0.633256         1.522105
 C         3.418152         0.490529         1.212874
 C         4.102094         0.582312        -0.178041
 C         3.223403         1.255397        -1.281351
 O         1.765584         1.104068        -0.982359
 C         3.507019        -0.750195         0.319916
 O         2.266759        -1.050766        -0.237241
 H        -0.184176        -0.948370         0.838138
 H        -0.696016         0.641459         0.077283
 H        -0.323278        -0.924785        -0.915379
 H         1.576321         1.534845         1.845248
 H         1.753583        -0.147059         2.228797
 H         4.086280         0.641390         2.082817
 H         5.129390         0.874050        -0.195792
 H         3.499527         2.341613        -1.397169
 H         3.231700         0.783526        -2.335560
 H         4.138925        -1.610277         0.448958
