19
Iteration:  4841charge 0 multiplicity 1
 C        -0.014318        -0.199222        -0.052621
 C         1.436576         0.058443         0.023395
 C         2.036916         0.602792         1.353360
 C         3.530835         0.279951         1.314059
 C         4.033507         0.701457        -0.038902
 C         3.078980         1.503476        -1.043788
 O         1.773493         0.968863        -1.103486
 C         3.587848        -0.764207         0.206691
 O         2.185730        -1.116573        -0.216613
 H        -0.321075        -0.975660         0.574102
 H        -0.513510         0.673622         0.426299
 H        -0.370018        -0.426039        -1.178135
 H         1.927981         1.743472         1.295712
 H         1.370896         0.118711         2.012613
 H         4.126697         0.355325         2.254514
 H         5.009181         0.938841        -0.077747
 H         3.114781         2.534524        -0.932160
 H         3.565257         1.455660        -2.037287
 H         4.263578        -1.628846         0.182239
