19
Iteration:  4444
 C         0.046784        -0.366316        -0.095987
 C         1.452726         0.158520         0.011322
 C         2.028236         0.747893         1.363106
 C         3.478869         0.331156         1.285292
 C         4.031202         0.609291        -0.122946
 C         3.094587         1.525548        -0.945068
 O         1.816736         0.951254        -1.123088
 C         3.513846        -0.755323         0.183359
 O         2.155564        -1.082132        -0.193900
 H        -0.119593        -0.900939         0.848595
 H        -0.714613         0.408078         0.017282
 H        -0.053091        -0.976688        -1.035545
 H         1.885580         1.814686         1.383282
 H         1.510465         0.258585         2.228317
 H         4.234869         0.058625         2.105566
 H         5.012301         0.612834        -0.292170
 H         3.117843         2.540005        -0.401244
 H         3.531856         1.547067        -1.924534
 H         4.086005        -1.651068         0.531618
