19
Iteration:  3493charge 0 multiplicity 1
 C        -0.039892        -0.330324        -0.083667
 C         1.444628         0.113771        -0.024574
 C         1.935997         0.708033         1.325901
 C         3.539697         0.321843         1.279186
 C         4.009281         0.636417        -0.137949
 C         3.176997         1.496636        -0.981538
 O         1.825743         1.012398        -1.110961
 C         3.524391        -0.771831         0.274828
 O         2.206560        -1.125777        -0.174397
 H        -0.180187        -1.030426         0.778257
 H        -0.670742         0.564930         0.073364
 H        -0.374656        -0.760679        -1.023847
 H         1.845864         1.830007         1.343612
 H         1.421182         0.369679         2.294586
 H         4.111428         0.247985         2.210085
 H         5.037663         0.709424        -0.248445
 H         3.256221         2.410144        -0.537543
 H         3.535863         1.674597        -2.014599
 H         4.213729        -1.673931         0.404075
