19
Iteration:  1198charge 0 multiplicity 1
 C         0.068578        -0.235428        -0.054487
 C         1.465038         0.111551         0.011369
 C         1.994382         0.642486         1.417454
 C         3.458662         0.429031         1.261480
 C         4.016195         0.634736        -0.174367
 C         3.175087         1.359090        -1.203591
 O         1.744365         1.014467        -0.971804
 C         3.550468        -0.707923         0.293825
 O         2.212086        -1.148374        -0.201865
 H        -0.167136        -0.933325         0.691850
 H        -0.698220         0.566305         0.134486
 H        -0.176627        -0.742011        -0.939211
 H         1.688431         1.675174         1.336971
 H         1.468942         0.190948         2.365492
 H         4.028032         0.466689         2.180923
 H         5.054622         0.880910        -0.135370
 H         3.217997         2.516966        -1.110619
 H         3.293481         1.044918        -2.237895
 H         4.054664        -1.702018         0.417651
