19
Iteration:   819charge 0 multiplicity 1
 C        -0.045435        -0.260889        -0.114926
 C         1.459582         0.092047         0.020051
 C         2.126776         0.762920         1.400095
 C         3.587605         0.336674         1.274826
 C         3.995105         0.602637        -0.174484
 C         3.089075         1.478418        -1.124783
 O         1.753262         0.900067        -1.127874
 C         3.512079        -0.787702         0.220477
 O         2.188316        -1.090219         0.009086
 H        -0.242945        -0.739960         0.812074
 H        -0.618572         0.653958        -0.235677
 H        -0.112834        -0.882331        -1.031371
 H         1.812140         1.934594         1.434787
 H         1.533675         0.255932         2.215243
 H         4.121845         0.515590         2.190194
 H         5.059899         0.839885        -0.387789
 H         2.895175         2.531733        -0.775081
 H         3.463988         1.546159        -2.124309
 H         4.131060        -1.685743         0.335962
