19
Iteration:  1606
 C         0.032445        -0.271408        -0.185800
 C         1.423453         0.143773         0.101825
 C         2.035686         0.689369         1.523855
 C         3.411276         0.407065         1.287375
 C         3.981361         0.636149        -0.086232
 C         3.072151         1.153889        -1.292130
 O         1.750519         1.033180        -0.886921
 C         3.587801        -0.708381         0.239145
 O         2.320901        -1.012220        -0.226518
 H        -0.252449        -0.969311         0.560472
 H        -0.650563         0.640715        -0.092256
 H        -0.147464        -0.494327        -1.196337
 H         1.786837         1.765846         1.472818
 H         1.653445         0.254378         2.445107
 H         4.235954         0.367699         2.075697
 H         4.962082         1.007153        -0.387190
 H         3.153809         2.190249        -1.563653
 H         3.125125         0.496919        -2.241386
 H         4.267834        -1.571342         0.241737
