19
Iteration:  3027charge 0 multiplicity 1
 C        -0.041406        -0.337503        -0.133974
 C         1.423116         0.116644         0.003777
 C         2.016177         0.668136         1.415848
 C         3.510527         0.396466         1.210878
 C         3.985058         0.637358        -0.144846
 C         3.188672         1.482396        -1.030632
 O         1.790234         1.005506        -1.041998
 C         3.532701        -0.756329         0.269739
 O         2.206225        -1.108609        -0.163835
 H        -0.364722        -0.837420         0.792953
 H        -0.570931         0.616433        -0.233717
 H        -0.220827        -0.925267        -0.999831
 H         1.717720         1.674892         1.551340
 H         1.663700         0.058984         2.312041
 H         4.200996         0.313464         2.043688
 H         5.053966         0.567360        -0.146988
 H         3.341360         2.542509        -0.810164
 H         3.425512         1.379430        -2.073958
 H         4.235620        -1.600527         0.313470
