19
Iteration:  2295
 C        -0.036507        -0.140490         0.039929
 C         1.505658         0.030637         0.000192
 C         2.002951         0.720958         1.306560
 C         3.460314         0.458430         1.178146
 C         3.997879         0.578443        -0.237867
 C         3.106277         1.497863        -0.999542
 O         1.811702         0.923429        -1.105774
 C         3.544439        -0.777291         0.319469
 O         2.271254        -1.258245        -0.114217
 H        -0.517477        -1.121146         0.228184
 H        -0.517773         0.644852         0.700016
 H        -0.395314         0.045854        -1.054098
 H         1.660218         1.783075         1.095008
 H         1.478349         0.335843         2.231346
 H         4.066675         0.532136         2.080335
 H         5.077194         0.782188        -0.321092
 H         2.935297         2.493862        -0.532200
 H         3.483070         1.619917        -2.049133
 H         4.242315        -1.571681         0.403382
