19
Iteration:  3851charge 0 multiplicity 1
 C        -0.038139        -0.292531        -0.067624
 C         1.422574         0.130833        -0.025286
 C         2.017896         0.814457         1.230514
 C         3.473495         0.292814         1.315037
 C         4.059055         0.557368        -0.099427
 C         3.151090         1.479540        -0.879238
 O         1.758852         0.948833        -1.078005
 C         3.546112        -0.832714         0.230334
 O         2.234449        -1.078583        -0.232812
 H        -0.081300        -0.850256         0.829063
 H        -0.716229         0.579383        -0.185440
 H        -0.200573        -1.133904        -0.865535
 H         1.821774         1.964611         1.078900
 H         1.599108         0.451165         2.172956
 H         3.997749         0.591273         2.246822
 H         5.127235         0.848768        -0.239984
 H         3.037285         2.404209        -0.325748
 H         3.457999         1.660539        -1.933744
 H         4.284037        -1.618948         0.285277
