19
Iteration:   363charge 0 multiplicity 1
 C         0.008008        -0.278569         0.022148
 C         1.511708         0.072964         0.033657
 C         1.880302         0.671232         1.315903
 C         3.480004         0.522254         1.264971
 C         3.998781         0.513831        -0.191644
 C         3.218831         1.395032        -1.069263
 O         1.777058         1.027223        -1.176978
 C         3.535688        -0.775499         0.264018
 O         2.234849        -1.071602        -0.108311
 H        -0.129832        -1.119822         0.718992
 H        -0.725561         0.375493         0.348587
 H        -0.330896        -0.684006        -0.891362
 H         1.634290         1.704904         1.435587
 H         1.586832         0.157623         2.259009
 H         4.160000         0.833081         2.075985
 H         5.064677         0.636436        -0.094456
 H         3.193614         2.379652        -0.590515
 H         3.572391         1.413167        -2.143009
 H         3.991460        -1.814936         0.307361
