19
Iteration:  2519
 C        -0.050351        -0.065336        -0.145370
 C         1.484640         0.015808         0.137045
 C         1.942032         0.623006         1.400378
 C         3.405966         0.401593         1.207451
 C         4.010430         0.685907        -0.106810
 C         3.092697         1.301605        -1.117171
 O         1.773445         0.928555        -0.955269
 C         3.590381        -0.785435         0.250549
 O         2.353068        -1.110564        -0.219767
 H        -0.396333        -0.999099         0.091528
 H        -0.498456         0.640504         0.549163
 H        -0.435680         0.301794        -1.153995
 H         1.639054         1.696004         1.312950
 H         1.637667         0.169754         2.371959
 H         4.080929         0.681616         2.068585
 H         5.038526         1.212905        -0.212334
 H         3.179189         2.331496        -1.320640
 H         3.525123         0.962414        -2.059239
 H         4.304883        -1.597317         0.191585
