19
Iteration:  4738
 C         0.038177        -0.174678        -0.087080
 C         1.492549         0.156484         0.039974
 C         1.984853         0.500195         1.491507
 C         3.415367         0.360208         1.313649
 C         3.956815         0.689233        -0.081729
 C         3.126543         1.272081        -1.189210
 O         1.737909         1.108014        -0.952898
 C         3.597485        -0.716972         0.227130
 O         2.277548        -1.084728        -0.302097
 H        -0.530347        -0.945136         0.561187
 H        -0.461009         0.792587        -0.200467
 H         0.033984        -0.603081        -1.039271
 H         1.634007         1.474446         1.747438
 H         1.545146        -0.292912         2.145314
 H         4.037772         0.554865         2.160241
 H         5.044966         0.954240        -0.372009
 H         3.400745         2.306631        -1.278394
 H         3.300114         0.600491        -2.053576
 H         4.211827        -1.621197         0.387683
