19
Iteration:  4617charge 0 multiplicity 1
 C        -0.024018        -0.156607        -0.051418
 C         1.486593         0.085856         0.034869
 C         1.912042         0.523178         1.440093
 C         3.418288         0.400595         1.270830
 C         4.028801         0.645119        -0.127946
 C         3.187348         1.439648        -1.150004
 O         1.763802         1.028189        -0.980984
 C         3.573387        -0.765776         0.213806
 O         2.302865        -1.129976        -0.235990
 H        -0.451801        -0.879769         0.695938
 H        -0.595521         0.750108        -0.125838
 H        -0.215813        -0.588565        -1.059362
 H         1.625946         1.522313         1.593923
 H         1.388116        -0.056530         2.263805
 H         4.009158         0.392166         2.244659
 H         4.997609         0.876688        -0.179916
 H         3.146236         2.524765        -1.009814
 H         3.576949         1.246750        -2.174920
 H         4.273159        -1.600030         0.207206
