19
Iteration:  2338
 C         0.092040        -0.336070        -0.101587
 C         1.452229         0.215727         0.105405
 C         1.977983         0.734212         1.458497
 C         3.519090         0.330436         1.322586
 C         3.936631         0.626530        -0.110725
 C         3.133547         1.243303        -1.268821
 O         1.719838         1.114970        -0.993966
 C         3.526365        -0.767053         0.225914
 O         2.225974        -1.053060        -0.184182
 H         0.019271        -1.309352         0.465474
 H        -0.736150         0.420165         0.092327
 H         0.023271        -0.720357        -1.213391
 H         1.845562         1.833195         1.639302
 H         1.539498         0.145292         2.297081
 H         4.357858         0.519072         2.017261
 H         5.012876         0.831511        -0.281642
 H         3.541622         2.273380        -1.387400
 H         3.344171         0.745410        -2.213363
 H         4.063765        -1.660206         0.411373
