19
Iteration:  2007
 C        -0.002301        -0.314256        -0.072048
 C         1.451438         0.175981         0.136145
 C         2.007544         0.610901         1.531040
 C         3.499714         0.369140         1.267100
 C         3.984822         0.673876        -0.121024
 C         3.204599         1.153510        -1.327864
 O         1.714652         1.099390        -0.974123
 C         3.559233        -0.715225         0.290378
 O         2.239855        -0.951345        -0.274343
 H        -0.403622        -0.725250         0.924690
 H        -0.568769         0.603588        -0.366194
 H        -0.067238        -1.038647        -0.819108
 H         1.647656         1.624160         1.657460
 H         1.576813        -0.046620         2.359885
 H         4.080174         0.439063         2.158118
 H         5.073399         0.811058        -0.215005
 H         3.460787         2.198073        -1.510841
 H         3.185752         0.635454        -2.344637
 H         4.088467        -1.679923         0.235433
