19
Iteration:  4126charge 0 multiplicity 1
 C        -0.017911        -0.286594        -0.156009
 C         1.414161         0.128479         0.036144
 C         1.941420         0.572555         1.411758
 C         3.448864         0.427736         1.311154
 C         4.006048         0.667083        -0.071244
 C         3.270468         1.232031        -1.198500
 O         1.724907         1.199764        -1.024596
 C         3.570292        -0.765944         0.306401
 O         2.232488        -1.061762        -0.192299
 H        -0.118661        -1.272309         0.508910
 H        -0.843602         0.428265         0.071069
 H        -0.090132        -0.431460        -1.230747
 H         1.680625         1.520523         1.930187
 H         1.788894        -0.237565         2.194990
 H         4.170259         0.430065         2.140725
 H         5.161973         0.980600        -0.204442
 H         3.383141         2.316057        -1.333719
 H         3.622069         0.695276        -2.119008
 H         4.127458        -1.704296         0.383600
