19
Iteration:  2048charge 0 multiplicity 1
 C        -0.035400        -0.128244         0.014623
 C         1.482164        -0.005815         0.024609
 C         1.973285         0.663211         1.330104
 C         3.444095         0.429929         1.198638
 C         4.049774         0.628281        -0.177458
 C         3.109760         1.463536        -1.131562
 O         1.767016         0.933276        -1.030486
 C         3.548713        -0.797725         0.288915
 O         2.280267        -1.182630        -0.142517
 H        -0.401204        -0.759968         0.853119
 H        -0.339112         0.965098         0.105145
 H        -0.516951        -0.372484        -0.896442
 H         1.799272         1.708478         1.336810
 H         1.640346         0.263018         2.253213
 H         4.063601         0.675770         2.027073
 H         5.169305         0.672605        -0.259103
 H         2.982825         2.574032        -0.915429
 H         3.429211         1.414064        -2.124244
 H         4.354194        -1.577437         0.359018
