19
Iteration:    11
 C         0.026397        -0.339571        -0.040503
 C         1.488828         0.094494        -0.001809
 C         1.979091         0.619778         1.412957
 C         3.471411         0.437139         1.273325
 C         4.067498         0.624285        -0.191354
 C         3.145478         1.383347        -1.238078
 O         1.772232         1.043263        -1.119348
 C         3.503285        -0.741547         0.375212
 O         2.204399        -1.015299        -0.110859
 H        -0.194687        -0.951003         0.770574
 H        -0.456337         0.576617         0.207519
 H        -0.422209        -0.714801        -0.919483
 H         1.716912         1.721026         1.632690
 H         1.611814         0.041731         2.256128
 H         3.932041         0.176175         2.187313
 H         5.127751         0.633950        -0.183115
 H         3.266648         2.441751        -1.197163
 H         3.516664         1.020378        -2.239892
 H         3.898439        -1.696361         0.633544
