19
Iteration:  2595
 C        -0.006743        -0.289413        -0.093049
 C         1.459910         0.046553        -0.004619
 C         1.982251         0.695518         1.394463
 C         3.444891         0.375168         1.300968
 C         4.016748         0.623223        -0.030905
 C         3.108412         1.216782        -1.217625
 O         1.693328         1.228436        -0.858604
 C         3.588873        -0.783020         0.287713
 O         2.307759        -1.052348        -0.326925
 H        -0.215960        -0.921061         0.715034
 H        -0.619430         0.628437        -0.116428
 H        -0.207979        -0.872703        -1.051408
 H         1.765689         1.799371         1.345262
 H         1.524882         0.231849         2.278777
 H         4.175139         0.267756         2.164386
 H         5.105012         0.743558        -0.303021
 H         3.456971         2.279278        -1.438021
 H         3.345526         0.616794        -2.089687
 H         4.323375        -1.573877         0.371643
