19
Iteration:   153
 C         0.021930        -0.220953         0.031391
 C         1.525493         0.090192         0.034023
 C         2.028760         0.805268         1.251465
 C         3.429830         0.292565         1.324045
 C         4.097625         0.596588        -0.093574
 C         3.046286         1.432488        -1.081788
 O         1.608256         0.904745        -1.111072
 C         3.539994        -0.766290         0.305001
 O         2.331827        -1.080017        -0.237349
 H        -0.216173        -0.870048         0.782945
 H        -0.542875         0.647334         0.116555
 H         0.010325        -0.702571        -0.908544
 H         1.860843         2.039842         1.165915
 H         1.395324         0.685363         2.151444
 H         3.991871         0.082312         2.294530
 H         5.222559         0.620269        -0.307246
 H         3.072528         2.452095        -0.791744
 H         3.464868         1.358882        -2.166832
 H         4.223371        -1.648413         0.532969
