19
Iteration:  3256
 C        -0.018495        -0.295247        -0.068794
 C         1.504835         0.085784        -0.051718
 C         1.972445         0.745147         1.301474
 C         3.491502         0.318703         1.265766
 C         4.019534         0.555191        -0.168478
 C         3.151430         1.591524        -0.907535
 O         1.786419         0.980666        -1.139744
 C         3.520203        -0.808493         0.244116
 O         2.216810        -1.144162        -0.118157
 H        -0.266872        -1.194109         0.577448
 H        -0.598817         0.558262         0.267869
 H        -0.458783        -0.495271        -1.013188
 H         1.725844         1.749256         1.266871
 H         1.592421         0.361970         2.257493
 H         4.144242         0.403130         2.165025
 H         5.142829         0.732196        -0.270795
 H         2.887189         2.574525        -0.364661
 H         3.627946         1.842837        -1.884982
 H         4.261812        -1.610804         0.287762
