19
Iteration:  4159
 C         0.027495        -0.155179        -0.150124
 C         1.483194         0.051490         0.007997
 C         1.821346         0.564839         1.492467
 C         3.348096         0.451681         1.299283
 C         3.941980         0.646212        -0.139972
 C         3.171054         1.074096        -1.291630
 O         1.801164         1.208243        -0.773708
 C         3.629863        -0.672311         0.335973
 O         2.384105        -1.084987        -0.341282
 H        -0.391056        -1.209682         0.197189
 H        -0.544522         0.754465         0.176243
 H        -0.135017        -0.406675        -1.196066
 H         1.357744         1.568205         1.592719
 H         1.467413        -0.100558         2.368282
 H         3.912856         0.629832         2.220737
 H         5.092299         0.983709        -0.191723
 H         3.435286         2.098154        -1.601881
 H         3.298005         0.397766        -2.180527
 H         4.278014        -1.583017         0.360327
