19
Iteration:  4580charge 0 multiplicity 1
 C         0.048414        -0.364183        -0.096094
 C         1.455046         0.169717         0.053730
 C         1.946312         0.638640         1.434201
 C         3.397925         0.302137         1.356929
 C         4.052090         0.664515        -0.062522
 C         3.159957         1.234365        -1.232015
 O         1.705362         1.237951        -0.871881
 C         3.530084        -0.782549         0.216417
 O         2.309954        -0.983966        -0.347854
 H        -0.214344        -1.016432         0.694898
 H        -0.739365         0.401230        -0.203636
 H         0.296101        -1.053011        -0.918579
 H         1.765416         1.750862         1.420860
 H         1.485487         0.101747         2.209428
 H         4.037432         0.294345         2.240238
 H         5.249983         0.732354        -0.223159
 H         3.356808         2.294583        -1.431843
 H         3.236101         0.497268        -2.063905
 H         4.007525        -1.775876         0.293619
