19
Iteration:  4096charge 0 multiplicity 1
 C         0.049598        -0.265591        -0.139086
 C         1.462606         0.027255         0.025002
 C         1.955134         0.781372         1.281236
 C         3.392708         0.287417         1.259242
 C         4.042866         0.609290        -0.137207
 C         3.141765         1.467009        -1.027584
 O         1.778965         0.998849        -0.991611
 C         3.519051        -0.800726         0.305322
 O         2.247260        -1.092173        -0.188191
 H        -0.262222        -0.952714         0.661426
 H        -0.503505         0.643796         0.079347
 H        -0.038851        -0.656897        -1.101842
 H         1.921860         1.844903         1.223494
 H         1.505065         0.449154         2.237093
 H         4.069376         0.236529         2.136440
 H         5.136544         0.895513        -0.349477
 H         3.111072         2.617271        -0.618432
 H         3.513855         1.496395        -2.038288
 H         4.165806        -1.734100         0.390240
