19
Iteration:  1332
 C        -0.029577        -0.207322        -0.100999
 C         1.462491         0.023340         0.075114
 C         2.027655         0.638400         1.342359
 C         3.464531         0.418213         1.199537
 C         4.018024         0.670281        -0.148949
 C         3.117959         1.304809        -1.182061
 O         1.684299         1.080806        -0.933626
 C         3.628365        -0.709273         0.313618
 O         2.283258        -1.141715        -0.190549
 H        -0.376566        -0.743411         0.812993
 H        -0.481076         0.737217        -0.156466
 H        -0.290299        -0.771829        -1.036628
 H         1.602759         1.632546         1.442269
 H         1.530823         0.077002         2.262625
 H         4.107872         0.440864         2.093290
 H         5.113549         0.901622        -0.085661
 H         3.432797         2.402675        -1.134155
 H         3.326658         0.912060        -2.170458
 H         4.085632        -1.649764         0.523157
