19
Iteration:  1394
 C         0.032670        -0.352148        -0.081507
 C         1.442385         0.166854         0.016918
 C         1.919532         0.630642         1.426976
 C         3.483693         0.448435         1.315947
 C         3.983257         0.606129        -0.164650
 C         3.205484         1.238461        -1.277825
 O         1.752507         1.178544        -0.959680
 C         3.535912        -0.706095         0.262255
 O         2.233134        -1.048094        -0.145920
 H         0.182518        -1.162217         0.695583
 H        -0.755290         0.296125         0.395291
 H        -0.284514        -0.792976        -1.019373
 H         1.490102         1.535246         1.759776
 H         1.740736        -0.213347         2.076876
 H         4.318803         0.583789         2.033609
 H         5.097098         0.640527        -0.237204
 H         3.334530         2.257407        -1.559764
 H         3.494417         0.605099        -2.197793
 H         4.177618        -1.583044         0.315143
