19
Iteration:   544charge 0 multiplicity 1
 C         0.010485        -0.272752        -0.073811
 C         1.522873         0.038748         0.045339
 C         1.929380         0.669531         1.427468
 C         3.448481         0.581216         1.238268
 C         4.000128         0.583688        -0.198455
 C         3.168017         1.291049        -1.234685
 O         1.785462         1.085038        -0.958027
 C         3.534312        -0.687017         0.282306
 O         2.200173        -1.198173        -0.151315
 H        -0.167610        -1.110981         0.626001
 H        -0.306692         0.638578         0.398082
 H        -0.336703        -0.359781        -1.065474
 H         1.373846         1.665251         1.579551
 H         1.722744        -0.062415         2.274594
 H         4.125087         0.854300         2.061074
 H         5.042689         0.736310        -0.335402
 H         3.443363         2.354376        -1.153650
 H         3.565258         0.861793        -2.268998
 H         4.206129        -1.596082         0.344960
