19
Iteration:  3719charge 0 multiplicity 1
 C        -0.046284        -0.268589        -0.107960
 C         1.471223         0.073369         0.006050
 C         1.968238         0.635000         1.367649
 C         3.449826         0.389759         1.286364
 C         4.019270         0.587486        -0.083205
 C         3.195502         1.327670        -1.131717
 O         1.730444         1.143274        -0.971827
 C         3.597176        -0.769909         0.273336
 O         2.248609        -1.064277        -0.249072
 H        -0.482534        -0.961418         0.721469
 H        -0.712361         0.596274        -0.144111
 H         0.021942        -0.817359        -1.019914
 H         1.707399         1.744583         1.644968
 H         1.470820         0.046586         2.138461
 H         4.075941         0.415108         2.217544
 H         5.009201         0.759603        -0.093190
 H         3.257417         2.398259        -1.001319
 H         3.572105         1.102202        -2.144899
 H         4.360810        -1.615434         0.433905
