19
Iteration:  3279
 C         0.016909        -0.323701        -0.079440
 C         1.486932         0.194811        -0.013116
 C         2.064396         0.715789         1.290689
 C         3.497982         0.280773         1.291205
 C         4.026819         0.650150        -0.089356
 C         3.112408         1.510765        -0.954259
 O         1.805333         0.927784        -1.152844
 C         3.489024        -0.781381         0.223001
 O         2.130137        -1.092285        -0.122020
 H        -0.001746        -1.326638         0.355298
 H        -0.824799         0.253478         0.288779
 H        -0.210243        -0.470052        -1.113224
 H         2.039570         1.715644         1.511509
 H         1.617355         0.260813         2.164243
 H         4.039932         0.241393         2.217511
 H         5.119082         0.893324        -0.474732
 H         2.948358         2.579863        -0.472951
 H         3.589288         1.689566        -1.944561
 H         4.184851        -1.550018         0.384033
