19
Iteration:  4088
 C         0.006727        -0.242012        -0.116078
 C         1.456493         0.049327         0.058342
 C         2.016577         0.756545         1.237864
 C         3.441727         0.298715         1.240959
 C         4.060966         0.606169        -0.100319
 C         3.120107         1.520203        -0.945082
 O         1.756894         1.021433        -1.095712
 C         3.540693        -0.793595         0.258468
 O         2.231806        -1.189226        -0.144631
 H        -0.279253        -0.898072         0.630436
 H        -0.503941         0.716572         0.022139
 H        -0.194836        -0.806643        -1.053991
 H         1.822104         1.805851         1.028661
 H         1.403872         0.446940         2.053159
 H         3.980065         0.328215         2.191010
 H         5.030882         0.869454        -0.154260
 H         3.261831         2.411676        -0.472835
 H         3.471553         1.677753        -1.967050
 H         4.274297        -1.594236         0.502600
