19
Iteration:  4409
 C        -0.023887        -0.158953        -0.184675
 C         1.484723         0.024372         0.011109
 C         1.906668         0.580867         1.461767
 C         3.471298         0.374371         1.288177
 C         3.979606         0.643003        -0.147985
 C         3.090180         1.415269        -1.147037
 O         1.750459         1.065915        -0.931996
 C         3.642999        -0.718966         0.232317
 O         2.317749        -1.174991        -0.172606
 H        -0.434945        -0.653246         0.658743
 H        -0.338053         0.902476        -0.424137
 H        -0.331906        -0.773829        -1.084910
 H         1.730640         1.603677         1.608839
 H         1.393166         0.064369         2.329081
 H         4.122338         0.316380         2.135121
 H         4.974474         0.820601        -0.341005
 H         3.348440         2.516908        -1.124062
 H         3.271896         1.137849        -2.197908
 H         4.361209        -1.488002         0.501116
