19
Iteration:  2272charge 0 multiplicity 1
 C        -0.001334        -0.080598         0.026076
 C         1.493007         0.112276        -0.049195
 C         2.068565         0.742297         1.321243
 C         3.542423         0.242518         1.350533
 C         3.992710         0.707339        -0.078747
 C         3.010159         1.446882        -1.021703
 O         1.772741         0.733930        -1.226490
 C         3.573701        -0.744784         0.191769
 O         2.251268        -1.110912        -0.081279
 H        -0.399487        -1.060260         0.325809
 H        -0.410265         0.728053         0.713874
 H        -0.443519         0.022853        -1.113183
 H         1.853275         1.862875         1.247012
 H         1.356398         0.342166         2.082769
 H         4.178201         0.398678         2.152347
 H         5.029724         0.945234        -0.297145
 H         2.531949         2.376477        -0.693868
 H         3.435551         1.580466        -2.009171
 H         4.145987        -1.666065         0.180726
