19
Iteration:  2725
 C        -0.039048        -0.309623        -0.067939
 C         1.435071         0.150422         0.062976
 C         1.898406         0.516696         1.495936
 C         3.445841         0.384770         1.274500
 C         4.043202         0.693119        -0.104225
 C         3.220173         1.274462        -1.262508
 O         1.798315         1.137443        -1.081146
 C         3.562766        -0.716932         0.281490
 O         2.232580        -1.047354        -0.149977
 H        -0.262750        -1.306378         0.246487
 H        -0.655027         0.454631         0.443696
 H        -0.215923        -0.167279        -1.150267
 H         1.716726         1.524461         1.762972
 H         1.430699        -0.184634         2.177435
 H         4.101659         0.421954         2.187171
 H         5.118146         0.803144        -0.261654
 H         3.482477         2.351112        -1.389586
 H         3.492527         0.914223        -2.251480
 H         4.304344        -1.534889         0.319704
