19
Iteration:  3483charge 0 multiplicity 1
 C        -0.017935        -0.249697        -0.044074
 C         1.468577         0.054208        -0.071516
 C         2.032258         0.742701         1.298094
 C         3.409495         0.372809         1.327782
 C         4.082469         0.560715        -0.148723
 C         3.137727         1.541103        -0.909907
 O         1.817762         0.934734        -1.089389
 C         3.474175        -0.744783         0.266230
 O         2.237741        -1.152330        -0.222306
 H        -0.238715        -1.059359         0.695078
 H        -0.618625         0.652384         0.222718
 H        -0.290332        -0.656459        -1.039292
 H         1.780469         1.820030         1.196361
 H         1.473305         0.306772         2.231023
 H         4.071464         0.419522         2.196484
 H         5.083997         0.745759        -0.417203
 H         3.020032         2.527464        -0.421452
 H         3.407360         1.661601        -1.992429
 H         4.190777        -1.643242         0.243426
