19
Iteration:  3883charge 0 multiplicity 1
 C         0.041637        -0.258696        -0.100391
 C         1.447234         0.096206         0.003479
 C         2.006803         0.694704         1.318099
 C         3.462789         0.291579         1.313064
 C         4.018756         0.606532        -0.143195
 C         3.161403         1.582876        -1.003036
 O         1.799158         0.967851        -1.115006
 C         3.515295        -0.792115         0.259540
 O         2.188663        -1.137800        -0.135816
 H        -0.244148        -0.705584         0.816782
 H        -0.634989         0.609218        -0.153189
 H        -0.143528        -0.987817        -0.974569
 H         1.598820         1.768170         1.351510
 H         1.637446         0.182390         2.214843
 H         4.051761         0.429892         2.238982
 H         5.036117         0.692535        -0.337439
 H         2.978550         2.646024        -0.684182
 H         3.664839         1.700316        -1.943817
 H         4.209026        -1.650037         0.257573
