19
Iteration:  1415
 C        -0.110633        -0.346311        -0.067647
 C         1.470544         0.076165         0.068689
 C         1.978845         0.701164         1.356077
 C         3.454015         0.435467         1.228463
 C         4.089800         0.607768        -0.204149
 C         3.125014         1.295587        -1.143929
 O         1.714118         1.101560        -0.953093
 C         3.618009        -0.749333         0.351204
 O         2.283590        -1.079907        -0.226374
 H        -0.429977        -1.167411         0.635224
 H        -0.622236         0.641540         0.171991
 H        -0.252034        -0.502172        -1.122016
 H         1.864003         1.763783         1.309591
 H         1.628205         0.269573         2.270125
 H         4.166003         0.464625         2.103245
 H         5.153769         0.922345        -0.197461
 H         3.293854         2.390040        -1.161611
 H         3.398039         0.938371        -2.175218
 H         4.134817        -1.686864         0.521240
