19
Iteration:  4344
 C         0.104887        -0.359795        -0.129034
 C         1.516566         0.141965         0.014211
 C         1.943141         0.729329         1.414185
 C         3.383735         0.325435         1.330219
 C         3.977218         0.662521        -0.058257
 C         3.094676         1.178011        -1.162186
 O         1.726724         1.208422        -0.868060
 C         3.629494        -0.816720         0.255211
 O         2.240627        -1.003377        -0.331300
 H         0.020635        -1.368755         0.285436
 H        -0.577399         0.479021         0.292092
 H        -0.071139        -0.523559        -1.238736
 H         1.817871         1.790784         1.426701
 H         1.388170         0.275210         2.319626
 H         4.017392         0.486459         2.160051
 H         4.972030         0.936223        -0.213068
 H         3.277375         2.231592        -1.661285
 H         3.525593         0.477474        -1.889273
 H         4.158360        -1.757935         0.287994
