19
Iteration:  3952charge 0 multiplicity 1
 C        -0.016011        -0.309064        -0.139910
 C         1.468481         0.100758        -0.003775
 C         1.908411         0.591054         1.421694
 C         3.385951         0.392940         1.259402
 C         4.073303         0.669995        -0.057807
 C         3.148470         1.171673        -1.174454
 O         1.746900         1.304544        -0.902672
 C         3.608067        -0.775763         0.259364
 O         2.311655        -1.048549        -0.246746
 H        -0.315878        -1.263298         0.344722
 H        -0.633682         0.447309         0.360642
 H        -0.262328        -0.496102        -1.181709
 H         1.782111         1.673657         1.633881
 H         1.367506        -0.090435         2.110815
 H         3.914318         0.447114         2.186957
 H         5.276122         0.913329        -0.042329
 H         3.561910         2.016670        -1.655484
 H         3.078518         0.469766        -2.008940
 H         4.182956        -1.671991         0.417884
