19
Iteration:  1320charge 0 multiplicity 1
 C         0.035233        -0.259318        -0.053315
 C         1.502483         0.106007         0.005232
 C         1.899264         0.660324         1.488351
 C         3.431924         0.398388         1.269417
 C         3.998396         0.600642        -0.225298
 C         3.133748         1.401290        -1.198990
 O         1.790927         1.013560        -0.996805
 C         3.539385        -0.793452         0.248560
 O         2.271590        -1.082328        -0.142712
 H        -0.377633        -0.786990         0.832862
 H        -0.462877         0.672005        -0.116434
 H        -0.215213        -0.845007        -0.943701
 H         1.744814         1.700340         1.604294
 H         1.487327        -0.047180         2.352087
 H         4.226342         0.534949         2.028562
 H         5.046509         0.976045        -0.294620
 H         3.144868         2.529584        -1.219644
 H         3.388268         1.106531        -2.230202
 H         4.338089        -1.483792         0.360180
