19
Iteration:  1638charge 0 multiplicity 1
 C        -0.025798        -0.333518        -0.014492
 C         1.455630         0.144985         0.041968
 C         2.013057         0.621032         1.254119
 C         3.479639         0.446307         1.256994
 C         4.047559         0.567914        -0.188269
 C         3.153459         1.409809        -1.164767
 O         1.747623         1.098781        -1.039668
 C         3.521152        -0.772209         0.305038
 O         2.216999        -1.096339        -0.080722
 H        -0.189341        -0.905724         0.881379
 H        -0.706321         0.569799         0.097775
 H        -0.003702        -1.018434        -0.859943
 H         1.540295         1.588425         1.354350
 H         1.684279         0.013064         2.096004
 H         4.073975         0.520622         2.252588
 H         5.132097         0.694119        -0.434033
 H         3.308883         2.487146        -1.024788
 H         3.551217         1.221263        -2.181641
 H         4.240616        -1.591884         0.404853
