19
Iteration:  2799charge 0 multiplicity 1
 C         0.079793        -0.327780        -0.116994
 C         1.433135         0.172284         0.078154
 C         1.924979         0.638631         1.463468
 C         3.430915         0.350024         1.291300
 C         3.981233         0.611355        -0.157251
 C         3.191214         1.270545        -1.229492
 O         1.799345         1.183890        -0.935986
 C         3.494931        -0.746630         0.241240
 O         2.241391        -1.039634        -0.183505
 H         0.064668        -1.045450         0.631556
 H        -0.754269         0.373768        -0.221467
 H         0.183175        -0.842322        -1.117814
 H         1.521489         1.576086         1.641089
 H         1.562243        -0.153604         2.107206
 H         4.090066         0.410370         2.194801
 H         5.030688         0.888916        -0.190558
 H         3.459070         2.381490        -1.514820
 H         3.406568         0.760336        -2.194139
 H         4.152960        -1.641288         0.285097
