19
Iteration:  4703charge 0 multiplicity 1
 C        -0.075289        -0.314424        -0.001371
 C         1.476005         0.071160        -0.008057
 C         1.964995         0.696156         1.309605
 C         3.426417         0.348951         1.254434
 C         4.043283         0.622543        -0.176133
 C         3.202500         1.437527        -0.992704
 O         1.807155         1.085212        -0.993798
 C         3.542463        -0.774276         0.215402
 O         2.241973        -1.130405        -0.242560
 H        -0.185912        -1.101885         0.660487
 H        -0.744297         0.466660         0.316346
 H        -0.300481        -0.599567        -1.045459
 H         1.741393         1.694032         1.387054
 H         1.460786         0.187520         2.167202
 H         4.033899         0.530776         2.171061
 H         5.036648         0.731568        -0.305769
 H         3.299220         2.531563        -0.762471
 H         3.542393         1.469348        -2.009868
 H         4.173421        -1.615032         0.531012
