19
Iteration:  2092charge 0 multiplicity 1
 C         0.026386        -0.299560        -0.058388
 C         1.461565         0.120261        -0.021340
 C         2.140962         0.824743         1.317402
 C         3.567472         0.264309         1.298333
 C         3.968185         0.650181        -0.180738
 C         3.091876         1.556645        -1.042808
 O         1.710348         0.880293        -1.209180
 C         3.495253        -0.813125         0.245858
 O         2.160164        -1.081582         0.036925
 H         0.086016        -1.325470         0.431531
 H        -0.746466         0.361232         0.491457
 H        -0.372752        -0.375224        -1.031956
 H         2.011998         1.861656         1.365434
 H         1.607166         0.385707         2.126687
 H         4.309034         0.308938         2.091532
 H         5.075490         0.706603        -0.278292
 H         3.289396         2.584146        -0.699125
 H         3.496945         1.434798        -1.967787
 H         4.093986        -1.741339         0.073283
