19
Iteration:  1873charge 0 multiplicity 1
 C        -0.048289        -0.296024         0.059725
 C         1.431011         0.136252        -0.006494
 C         2.059549         0.791842         1.313037
 C         3.547850         0.402131         1.222059
 C         4.037221         0.616529        -0.176921
 C         3.117796         1.493191        -0.937529
 O         1.780191         0.874906        -1.228671
 C         3.491691        -0.806655         0.286534
 O         2.221427        -1.096009        -0.135920
 H        -0.284402        -0.982194         0.787072
 H        -0.735025         0.511053         0.303790
 H        -0.325719        -0.770497        -0.918919
 H         1.816819         1.875222         1.273089
 H         1.740657         0.438702         2.265818
 H         4.313387         0.169823         2.033898
 H         5.055364         0.312690        -0.385415
 H         2.977491         2.439201        -0.428360
 H         3.390596         1.735666        -2.019268
 H         4.189343        -1.616997         0.335933
