19
Iteration:  4116charge 0 multiplicity 1
 C        -0.007162        -0.296898        -0.189333
 C         1.429390         0.156293         0.071904
 C         1.984500         0.661201         1.476898
 C         3.463964         0.413442         1.329126
 C         3.997450         0.573484        -0.070470
 C         3.186635         1.312262        -1.151249
 O         1.769320         1.092685        -1.021041
 C         3.520134        -0.743482         0.242134
 O         2.248887        -1.076003        -0.249941
 H        -0.179322        -1.219787         0.503127
 H        -0.737146         0.452357         0.168062
 H        -0.094279        -0.654858        -1.190384
 H         1.621997         1.704364         1.500708
 H         1.411791         0.050429         2.236264
 H         4.155074         0.553593         2.177955
 H         5.175109         0.718213        -0.133128
 H         3.526482         2.426948        -1.076243
 H         3.468121         0.964710        -2.162539
 H         4.265174        -1.548077         0.350401
