19
Iteration:  2039
 C        -0.010494        -0.120482         0.003165
 C         1.470190         0.070756         0.029129
 C         2.008746         0.620000         1.339534
 C         3.485339         0.382796         1.272331
 C         3.999944         0.710492        -0.155852
 C         3.106954         1.387081        -1.197393
 O         1.735479         0.970299        -1.065912
 C         3.608840        -0.744779         0.270862
 O         2.233746        -1.194909        -0.124783
 H        -0.448375        -0.641402         0.915940
 H        -0.431443         0.905762         0.125135
 H        -0.315853        -0.589840        -0.895691
 H         1.604347         1.603667         1.307117
 H         1.553978         0.053245         2.173937
 H         4.101482         0.284449         2.155314
 H         5.076954         0.935540        -0.282675
 H         3.351240         2.385152        -0.889433
 H         3.445033         1.174968        -2.189537
 H         4.325803        -1.568993         0.434169
