19
Iteration:  4690charge 0 multiplicity 1
 C         0.046889        -0.322678        -0.023643
 C         1.421196         0.112275         0.061972
 C         1.986348         0.747248         1.342251
 C         3.477326         0.366406         1.235997
 C         4.040099         0.570267        -0.072714
 C         3.164145         1.536778        -1.003262
 O         1.798106         0.983080        -1.075881
 C         3.496452        -0.780765         0.194916
 O         2.185770        -1.133695        -0.237735
 H         0.041783        -1.187234         0.488673
 H        -0.674641         0.427517         0.294200
 H        -0.226187        -0.546504        -1.137427
 H         1.686664         1.829110         1.247144
 H         1.544606         0.385504         2.269690
 H         4.151893         0.217838         2.119554
 H         5.078124         0.675432        -0.118710
 H         3.182699         2.539944        -0.442420
 H         3.516701         1.542142        -2.003519
 H         4.170604        -1.606185         0.017934
