19
Iteration:  2863
 C         0.012913        -0.066207        -0.053376
 C         1.557334        -0.006994        -0.025628
 C         1.994198         0.657231         1.270362
 C         3.459127         0.313742         1.229478
 C         4.049045         0.703413        -0.136383
 C         3.037956         1.523806        -0.877795
 O         1.827828         0.848831        -1.184131
 C         3.530575        -0.730106         0.232307
 O         2.204305        -1.208091        -0.092532
 H        -0.338906        -0.513346         0.828977
 H        -0.556657         0.892807        -0.082555
 H        -0.530099        -0.742121        -0.794911
 H         1.671706         1.740882         1.429937
 H         1.512232         0.166711         2.220793
 H         4.144425         0.357659         2.101262
 H         5.091214         0.985988        -0.297787
 H         3.026370         2.446507        -0.360801
 H         3.373242         1.882754        -1.841838
 H         4.209145        -1.598741         0.096005
