19
Iteration:  1355
 C        -0.098882        -0.252369        -0.115272
 C         1.446721         0.078729         0.014110
 C         1.974068         0.652732         1.420720
 C         3.535219         0.465066         1.306641
 C         4.041559         0.624463        -0.149578
 C         3.081388         1.207912        -1.176752
 O         1.697373         1.098263        -0.882184
 C         3.642103        -0.714683         0.303717
 O         2.351815        -1.078896        -0.260261
 H        -0.593749        -0.900993         0.632074
 H        -0.540023         0.719931        -0.033471
 H        -0.423455        -0.564324        -1.144472
 H         1.622449         1.714353         1.482095
 H         1.341106         0.080040         2.166325
 H         4.156884         0.635858         2.191840
 H         5.121406         0.835799        -0.313570
 H         3.442692         2.167117        -1.629419
 H         3.114504         0.466283        -1.941513
 H         4.316220        -1.576589         0.180257
