19
Iteration:  3302
 C        -0.015113        -0.215096        -0.114025
 C         1.489186         0.011121         0.048714
 C         1.918438         0.676232         1.403757
 C         3.442013         0.388653         1.293722
 C         4.026133         0.610263        -0.112136
 C         3.132609         1.455355        -1.081710
 O         1.778859         0.987139        -1.033203
 C         3.558072        -0.780316         0.201924
 O         2.264426        -1.129185        -0.195643
 H        -0.320631        -1.046789         0.438946
 H        -0.586211         0.664497         0.211930
 H        -0.342717        -0.362088        -1.152582
 H         1.876672         1.728314         1.467983
 H         1.466362         0.368474         2.331797
 H         4.152826         0.489546         2.070803
 H         5.224150         0.771359        -0.304246
 H         3.305017         2.518600        -0.592407
 H         3.400193         1.548232        -2.149951
 H         4.320157        -1.545776         0.202544
