19
Iteration:  2169
 C         0.064708        -0.226509        -0.024075
 C         1.466671         0.151400         0.060244
 C         1.913709         0.544513         1.474100
 C         3.432237         0.392534         1.256265
 C         4.000632         0.735233        -0.152311
 C         3.115630         1.105458        -1.354426
 O         1.763159         1.173571        -0.902904
 C         3.588845        -0.706210         0.255696
 O         2.273437        -1.047186        -0.186757
 H        -0.451564        -0.702710         0.891403
 H        -0.392516         0.735263        -0.381186
 H        -0.085758        -0.918629        -0.905845
 H         1.670267         1.527131         1.727589
 H         1.417928        -0.164016         2.110269
 H         4.234273         0.395148         2.097053
 H         5.109008         0.952652        -0.103422
 H         3.387600         2.053713        -1.868224
 H         3.192857         0.370250        -2.157741
 H         4.149396        -1.590378         0.392159
