19
Iteration:  4534
 C         0.001090        -0.240780        -0.208219
 C         1.447007         0.123851         0.032940
 C         1.946094         0.481221         1.444884
 C         3.469819         0.407766         1.273004
 C         4.064110         0.650253        -0.163124
 C         3.154640         1.334477        -1.224611
 O         1.699543         1.170251        -0.896877
 C         3.585914        -0.708511         0.315647
 O         2.236006        -1.119011        -0.189107
 H        -0.370066        -1.082568         0.471778
 H        -0.439208         0.677168         0.152622
 H        -0.109351        -0.448575        -1.220511
 H         1.614132         1.502058         1.847477
 H         1.663885        -0.355399         2.007366
 H         4.080357         0.459811         2.135876
 H         5.232996         0.713853        -0.080087
 H         3.276867         2.424660        -1.377575
 H         3.414529         0.678527        -2.060412
 H         4.443637        -1.336256         0.403025
