19
Iteration:  4578charge 0 multiplicity 1
 C         0.066697        -0.365196        -0.106810
 C         1.447844         0.167260         0.065070
 C         1.934840         0.652776         1.437747
 C         3.392934         0.289780         1.346845
 C         4.054931         0.654802        -0.063851
 C         3.168915         1.233034        -1.239582
 O         1.709015         1.236146        -0.854572
 C         3.533323        -0.774061         0.214249
 O         2.311412        -0.986374        -0.359252
 H        -0.232825        -1.066016         0.741418
 H        -0.722800         0.395006        -0.210289
 H         0.214207        -1.056232        -0.908086
 H         1.724959         1.800639         1.432043
 H         1.500398         0.113482         2.243892
 H         4.020828         0.384144         2.187153
 H         5.246270         0.693811        -0.187426
 H         3.364226         2.304739        -1.439470
 H         3.164500         0.521357        -2.071245
 H         4.005208        -1.746354         0.338431
