19
Iteration:  2352charge 0 multiplicity 1
 C         0.102694        -0.299509        -0.118379
 C         1.517871         0.112193         0.055957
 C         2.031371         0.677875         1.468239
 C         3.411500         0.323882         1.317643
 C         3.998693         0.646838        -0.130214
 C         3.069112         1.174627        -1.299575
 O         1.663938         1.176765        -0.921415
 C         3.587056        -0.772259         0.336733
 O         2.259836        -0.983895        -0.254228
 H        -0.278443        -0.881808         0.791268
 H        -0.530706         0.630367        -0.158901
 H         0.040327        -0.761333        -1.049530
 H         1.887080         1.759678         1.380780
 H         1.416145         0.317154         2.359675
 H         4.039981         0.329324         2.278667
 H         5.078589         0.838570        -0.117722
 H         3.181216         2.149405        -1.733837
 H         3.243950         0.388773        -2.150352
 H         4.325214        -1.584936         0.197497
