19
Iteration:  4936
 C        -0.026146        -0.334847        -0.089816
 C         1.439115         0.088856         0.024159
 C         1.972490         0.623293         1.357979
 C         3.504180         0.328443         1.273799
 C         4.061202         0.547562        -0.106099
 C         3.123587         1.368171        -1.122807
 O         1.702198         1.198877        -0.914665
 C         3.566736        -0.734670         0.285135
 O         2.277012        -1.032468        -0.318542
 H        -0.270036        -0.879101         0.816566
 H        -0.614353         0.618455         0.046896
 H        -0.190919        -0.903024        -1.044844
 H         1.578449         1.710662         1.574130
 H         1.614279        -0.063527         2.181038
 H         4.118925         0.293311         2.193103
 H         5.232602         0.726489        -0.195393
 H         3.396639         2.451569        -1.173857
 H         3.427942         0.970626        -2.131971
 H         4.149009        -1.596210         0.541582
