19
Iteration:   681charge 0 multiplicity 1
 C        -0.051550        -0.259228        -0.137655
 C         1.479764         0.104733         0.133027
 C         1.987788         0.670484         1.454241
 C         3.484035         0.420271         1.269620
 C         3.971774         0.610467        -0.205156
 C         3.143200         1.283478        -1.284009
 O         1.755826         1.070657        -0.986290
 C         3.562311        -0.710004         0.240954
 O         2.274022        -1.102967        -0.030332
 H        -0.701237        -0.948729         0.434630
 H        -0.751545         0.693880        -0.311386
 H        -0.027418        -0.714589        -1.177737
 H         1.862348         1.707569         1.625048
 H         1.575179        -0.010652         2.184642
 H         4.171822         0.533657         2.104562
 H         5.073661         0.667999        -0.370103
 H         3.307313         2.408785        -1.352210
 H         3.466563         0.816086        -2.218908
 H         4.422814        -1.451547         0.254025
