19
Iteration:  1962charge 0 multiplicity 1
 C         0.006765        -0.306716        -0.141974
 C         1.449383         0.045021         0.063456
 C         1.997481         0.595001         1.456929
 C         3.464816         0.453950         1.216992
 C         3.964141         0.581398        -0.226958
 C         3.111834         1.225322        -1.365434
 O         1.774319         1.316750        -0.812938
 C         3.584882        -0.728945         0.332052
 O         2.245330        -1.118762        -0.114866
 H        -0.395159        -1.018852         0.603709
 H        -0.569872         0.676150        -0.104294
 H         0.008011        -0.717059        -1.108719
 H         1.607319         1.573006         1.559538
 H         1.579693        -0.036554         2.294801
 H         4.192651         0.677102         1.947537
 H         5.055224         0.838000        -0.254400
 H         3.508180         2.194300        -1.621884
 H         3.311214         0.550880        -2.313619
 H         4.240503        -1.649492         0.380160
