19
Iteration:  3496charge 0 multiplicity 1
 C        -0.034151        -0.342433        -0.090169
 C         1.434862         0.127121         0.003960
 C         1.922534         0.707353         1.335063
 C         3.551684         0.304489         1.247072
 C         3.989203         0.640804        -0.118689
 C         3.171087         1.475377        -1.019738
 O         1.817246         1.036877        -1.110844
 C         3.552286        -0.784745         0.268508
 O         2.198845        -1.106877        -0.151531
 H        -0.160996        -1.014251         0.735365
 H        -0.713081         0.555823         0.027826
 H        -0.377196        -0.849949        -1.075269
 H         1.859568         1.776397         1.346875
 H         1.392612         0.278735         2.274379
 H         4.128253         0.229759         2.188539
 H         5.143513         0.661734        -0.141311
 H         3.264799         2.583274        -0.533379
 H         3.725279         1.648140        -2.027146
 H         4.233763        -1.661473         0.430818
