19
Iteration:   301
 C        -0.079707        -0.249572        -0.107934
 C         1.425248         0.057415         0.026034
 C         2.033443         0.665489         1.443981
 C         3.448098         0.445430         1.257139
 C         4.010200         0.625225        -0.174771
 C         3.144510         1.274846        -1.242917
 O         1.739356         1.108015        -0.960628
 C         3.553568        -0.742429         0.369384
 O         2.320011        -1.115625        -0.193633
 H        -0.270691        -0.833048         0.788658
 H        -0.610795         0.743140        -0.242154
 H        -0.177470        -0.850712        -1.065630
 H         1.726558         1.674343         1.594602
 H         1.485705        -0.009155         2.171347
 H         4.201275         0.579847         2.052140
 H         5.054720         0.941850        -0.277705
 H         3.343916         2.373568        -1.268081
 H         3.466997         0.825030        -2.170378
 H         4.210747        -1.612580         0.584228
