19
Iteration:  4542
 C        -0.022144        -0.271906        -0.166013
 C         1.441915         0.083209         0.062594
 C         1.927292         0.511951         1.363870
 C         3.471807         0.428329         1.266911
 C         4.089986         0.622653        -0.131969
 C         3.153642         1.312399        -1.233740
 O         1.734599         1.233174        -0.823309
 C         3.557466        -0.721847         0.281048
 O         2.284949        -1.100742        -0.228106
 H        -0.312671        -1.118115         0.573583
 H        -0.741618         0.561351        -0.054372
 H        -0.114369        -0.559088        -1.239017
 H         1.421610         1.416727         1.655523
 H         1.667409        -0.261587         2.198999
 H         4.065516         0.712300         2.199099
 H         5.098016         0.575572        -0.197379
 H         3.432836         2.345075        -1.456460
 H         3.305329         0.809546        -2.212894
 H         4.232794        -1.542418         0.595257
