19
Iteration:  4955
 C        -0.090172        -0.276401        -0.077544
 C         1.476741         0.121048        -0.016947
 C         1.912293         0.471399         1.433068
 C         3.415974         0.472287         1.251943
 C         4.066048         0.662850        -0.111988
 C         3.198735         1.210678        -1.192948
 O         1.767948         1.234161        -0.808840
 C         3.575970        -0.751385         0.254483
 O         2.304628        -1.049410        -0.325901
 H        -0.387815        -0.913405         0.863385
 H        -0.620912         0.688162        -0.071971
 H        -0.256046        -0.898641        -0.859679
 H         1.637829         1.429738         1.572227
 H         1.538738        -0.269789         2.207406
 H         4.014517         0.553042         2.175231
 H         5.202000         0.882792        -0.385899
 H         3.465405         2.192436        -1.352584
 H         3.261066         0.757504        -2.155834
 H         4.125420        -1.665771         0.232476
