19
Iteration:   297
 C        -0.059581        -0.252438        -0.094571
 C         1.433281         0.085767         0.003442
 C         2.013530         0.640434         1.430326
 C         3.454223         0.451696         1.239917
 C         4.034535         0.621747        -0.158791
 C         3.157593         1.269705        -1.237143
 O         1.745865         1.112893        -0.958605
 C         3.531310        -0.727410         0.359082
 O         2.324435        -1.103719        -0.186871
 H        -0.209821        -0.805739         0.844147
 H        -0.680613         0.581760        -0.191173
 H        -0.268492        -0.851452        -0.932292
 H         1.604539         1.657176         1.584163
 H         1.483632        -0.039099         2.149412
 H         4.113456         0.448026         2.103331
 H         5.049423         0.928271        -0.363562
 H         3.280377         2.335988        -1.209010
 H         3.396888         0.744679        -2.295195
 H         4.136108        -1.589823         0.679199
