19
Iteration:  2467charge 0 multiplicity 1
 C         0.037503        -0.329911         0.021188
 C         1.510695         0.170626        -0.002868
 C         1.992399         0.798568         1.260304
 C         3.409172         0.359486         1.200153
 C         3.993292         0.517050        -0.166712
 C         3.171769         1.511374        -0.957862
 O         1.846184         0.953642        -1.115607
 C         3.495724        -0.789194         0.245871
 O         2.163399        -1.160368        -0.136895
 H        -0.070327        -0.829943         0.949301
 H        -0.784918         0.422262         0.035568
 H        -0.139204        -1.008648        -0.841002
 H         1.764474         1.896324         1.243277
 H         1.478203         0.366794         2.104033
 H         4.223692         0.577581         1.958029
 H         5.056008         0.810248        -0.294781
 H         3.013321         2.405600        -0.249303
 H         3.579856         2.006926        -1.962139
 H         4.204046        -1.579805         0.436020
