19
Iteration:  4437charge 0 multiplicity 1
 C        -0.005850        -0.322322        -0.107392
 C         1.451745         0.133603        -0.008204
 C         2.069649         0.666290         1.342467
 C         3.503133         0.347426         1.279463
 C         4.013966         0.634535        -0.075906
 C         3.115913         1.515474        -0.950233
 O         1.756200         0.935130        -1.091074
 C         3.525781        -0.755679         0.165829
 O         2.165767        -1.066734        -0.163661
 H        -0.316423        -1.054280         0.719086
 H        -0.649017         0.539128        -0.258547
 H         0.076660        -0.899833        -0.984343
 H         2.126692         1.841766         1.419595
 H         1.562368         0.298730         2.193605
 H         4.066000         0.221541         2.205580
 H         5.242295         0.836526        -0.206259
 H         3.253729         2.572724        -0.620422
 H         3.470425         1.354577        -2.004088
 H         4.123170        -1.613502         0.402700
