19
Iteration:  1109
 C        -0.137558        -0.166174        -0.056854
 C         1.458457         0.080753         0.013974
 C         1.968883         0.628349         1.331338
 C         3.455113         0.402313         1.231383
 C         4.048643         0.607835        -0.199188
 C         3.113257         1.363682        -1.189702
 O         1.734694         1.023791        -0.983466
 C         3.636120        -0.756567         0.380175
 O         2.331928        -1.124150        -0.143994
 H        -0.479775        -0.842642         0.675567
 H        -0.580886         0.784512         0.107520
 H        -0.355644        -0.622660        -1.029903
 H         1.687984         1.714788         1.575088
 H         1.664991        -0.109839         2.150520
 H         4.030939         0.568259         2.161488
 H         5.122459         0.833971        -0.432912
 H         3.414662         2.469215        -1.100157
 H         3.337284         1.005920        -2.167068
 H         4.383751        -1.495430         0.513906
