19
Iteration:  1275
 C        -0.074456        -0.248206        -0.074285
 C         1.432180         0.043298         0.004869
 C         2.014171         0.820159         1.304018
 C         3.508774         0.342339         1.253687
 C         4.063635         0.652790        -0.170409
 C         3.096714         1.453274        -1.021222
 O         1.756618         0.956308        -1.059850
 C         3.588944        -0.793984         0.297325
 O         2.266665        -1.169046        -0.154154
 H        -0.250580        -0.943953         0.733666
 H        -0.702853         0.603909         0.255697
 H        -0.489169        -0.674808        -0.936415
 H         1.930987         1.850312         1.076874
 H         1.469189         0.436431         2.240433
 H         4.075911         0.487488         2.166632
 H         5.108370         0.609714        -0.411771
 H         3.164495         2.476457        -0.509962
 H         3.301993         1.613702        -2.090904
 H         4.268099        -1.673893         0.316222
