19
Iteration:   648
 C        -0.019758        -0.241193         0.063758
 C         1.484289         0.083903        -0.034811
 C         2.037526         0.726696         1.269565
 C         3.499308         0.395728         1.290433
 C         4.024451         0.623085        -0.101599
 C         3.093002         1.398061        -1.133711
 O         1.741595         0.937198        -1.075634
 C         3.516149        -0.710394         0.335015
 O         2.260999        -1.116427        -0.189747
 H        -0.439834        -0.678169         0.960637
 H        -0.603958         0.732644        -0.247840
 H        -0.252540        -0.946937        -0.807631
 H         1.835363         1.768238         1.408216
 H         1.580843         0.245756         2.102803
 H         4.077248         0.295848         2.203682
 H         5.087368         0.705005        -0.453591
 H         3.236523         2.494744        -0.980331
 H         3.456546         1.180148        -2.116382
 H         4.167630        -1.617871         0.458383
