19
Iteration:  4674charge 0 multiplicity 1
 C         0.039735        -0.291102        -0.116546
 C         1.507353         0.117314        -0.032333
 C         2.066646         0.754879         1.382829
 C         3.485103         0.220003         1.321143
 C         3.989099         0.645643        -0.160561
 C         3.082728         1.525898        -0.931903
 O         1.794689         0.931959        -1.147084
 C         3.490776        -0.780172         0.183823
 O         2.180177        -1.058225        -0.119351
 H        -0.230147        -1.328297         0.469841
 H        -0.646573         0.418942         0.429696
 H        -0.243439        -0.545591        -1.114205
 H         2.170944         1.893199         1.387589
 H         1.491908         0.304780         2.231186
 H         4.106781         0.284584         2.189761
 H         5.141186         0.756576        -0.377557
 H         2.827451         2.509902        -0.500335
 H         3.521327         1.705388        -1.971032
 H         4.130461        -1.666713         0.302574
