19
Iteration:   222charge 0 multiplicity 1
 C         0.000985        -0.213184        -0.156416
 C         1.431617         0.043917         0.068900
 C         2.033755         0.670863         1.401639
 C         3.508822         0.499149         1.225830
 C         3.921035         0.561253        -0.130411
 C         3.118610         1.348198        -1.141897
 O         1.737815         1.017070        -1.019610
 C         3.617754        -0.776875         0.286371
 O         2.259787        -1.109670        -0.112449
 H        -0.336616        -1.105941         0.437672
 H        -0.588760         0.670921         0.150502
 H        -0.096634        -0.377485        -1.238929
 H         1.701766         1.683965         1.410621
 H         1.485216         0.216086         2.326299
 H         4.224899         0.699800         1.974479
 H         4.956765         0.787724        -0.261203
 H         3.192770         2.424528        -0.960967
 H         3.447332         1.122834        -2.169678
 H         4.266190        -1.619303         0.347191
