19
Iteration:  4726charge 0 multiplicity 1
 C        -0.002504        -0.163597        -0.086108
 C         1.478669         0.041520         0.045121
 C         1.903594         0.549125         1.378675
 C         3.481902         0.366212         1.306896
 C         4.035684         0.616980        -0.110128
 C         3.141401         1.339340        -1.186934
 O         1.683499         1.162749        -0.975716
 C         3.591990        -0.782877         0.293636
 O         2.315187        -1.072059        -0.261267
 H        -0.190198        -0.838489         0.769649
 H        -0.659729         0.676463         0.063799
 H        -0.239929        -0.637948        -1.006008
 H         1.481835         1.459849         1.614771
 H         1.563152        -0.191929         2.152459
 H         4.157410         0.403783         2.160916
 H         5.106196         0.802157        -0.007941
 H         3.256415         2.434938        -1.207641
 H         3.476486         1.107631        -2.203157
 H         4.306028        -1.637325         0.306257
