19
Iteration:  2254
 C        -0.112340        -0.174399         0.009327
 C         1.404904         0.058270         0.077912
 C         2.082346         0.680140         1.392346
 C         3.527053         0.346371         1.262677
 C         3.995890         0.707467        -0.111537
 C         3.114794         1.513606        -1.096940
 O         1.853355         0.812818        -1.292653
 C         3.550482        -0.731753         0.252732
 O         2.179718        -1.114957        -0.095029
 H        -0.271341        -1.021809         0.691051
 H        -0.656330         0.644264         0.473806
 H        -0.355086        -0.354821        -0.955901
 H         1.970756         1.748080         1.595811
 H         1.656190         0.171001         2.293581
 H         4.178742         0.141748         2.177660
 H         5.085801         0.830328        -0.275941
 H         3.041437         2.566058        -0.730672
 H         3.575107         1.415139        -2.155394
 H         4.292160        -1.484976         0.189062
