19
Iteration:  3071
 C        -0.021135        -0.210115        -0.036550
 C         1.542947         0.039125        -0.033022
 C         1.996361         0.769985         1.263634
 C         3.437299         0.337782         1.270448
 C         3.976162         0.632001        -0.131512
 C         3.093707         1.528757        -0.913566
 O         1.803979         0.920953        -1.104147
 C         3.490058        -0.804433         0.265526
 O         2.272361        -1.188541        -0.210509
 H        -0.058542        -0.979593         0.748448
 H        -0.422355         0.723339         0.259366
 H        -0.348012        -0.528502        -0.942851
 H         1.940114         1.803810         1.209728
 H         1.569801         0.445373         2.270286
 H         3.974453         0.484802         2.246444
 H         5.074492         0.840711        -0.312773
 H         2.954022         2.488754        -0.429303
 H         3.562304         1.807440        -1.850701
 H         4.153113        -1.709328         0.155448
