19
Iteration:  2787
 C        -0.008750        -0.352888        -0.190482
 C         1.463381         0.180456         0.035046
 C         1.927042         0.569133         1.465262
 C         3.430660         0.420313         1.278272
 C         3.998062         0.627930        -0.146747
 C         3.164221         1.181781        -1.287158
 O         1.804928         1.211429        -0.835867
 C         3.593267        -0.735292         0.331178
 O         2.241229        -1.026133        -0.251232
 H        -0.317653        -1.110878         0.452390
 H        -0.691964         0.459575         0.115414
 H        -0.234432        -0.757783        -1.246395
 H         1.807996         1.628367         1.715384
 H         1.532671         0.088146         2.389359
 H         4.170584         0.652281         2.055211
 H         5.083076         0.758158        -0.185066
 H         3.403904         2.308307        -1.332080
 H         3.286051         0.569930        -2.203036
 H         4.212829        -1.621758         0.359121
