19
Iteration:  4888charge 0 multiplicity 1
 C        -0.088632        -0.196487        -0.058755
 C         1.422411         0.035606        -0.048077
 C         2.056050         0.612648         1.293418
 C         3.541424         0.323469         1.199417
 C         4.048134         0.670120        -0.138780
 C         3.125891         1.583483        -0.920749
 O         1.801089         0.929682        -1.096732
 C         3.525017        -0.771299         0.249024
 O         2.206700        -1.129669        -0.107140
 H        -0.496753        -1.089727         0.534298
 H        -0.651354         0.682737         0.212467
 H        -0.144134        -0.377374        -1.114913
 H         1.781786         1.605633         1.378731
 H         1.727406         0.051325         2.238188
 H         4.048634         0.354068         2.140622
 H         5.165735         0.785429        -0.370941
 H         2.931357         2.483902        -0.446911
 H         3.548762         1.884744        -1.843926
 H         4.206992        -1.653225         0.172306
