19
Iteration:  4986
 C         0.063364        -0.188591        -0.211695
 C         1.499526         0.130406         0.065485
 C         1.935037         0.445702         1.543457
 C         3.448303         0.328784         1.324560
 C         3.996904         0.724744        -0.118296
 C         3.075069         1.209325        -1.299418
 O         1.717030         1.189209        -0.862508
 C         3.583224        -0.712595         0.243511
 O         2.304409        -1.054056        -0.248381
 H        -0.467560        -0.760783         0.695152
 H        -0.489267         0.769948        -0.170252
 H        -0.022107        -0.491172        -1.229313
 H         1.703525         1.426864         1.762717
 H         1.445026        -0.200841         2.315771
 H         4.134086         0.305460         2.193545
 H         5.089821         1.003151        -0.309936
 H         3.381160         2.250781        -1.543819
 H         3.250536         0.498039        -2.176887
 H         4.220511        -1.583400         0.219384
