19
Iteration:  4077charge 0 multiplicity 1
 C        -0.070503        -0.229973        -0.048450
 C         1.476039         0.077511        -0.109875
 C         2.009261         0.707420         1.267220
 C         3.501162         0.384486         1.298836
 C         4.018505         0.594052        -0.103489
 C         3.124783         1.557671        -0.870276
 O         1.791720         0.997178        -1.174613
 C         3.580094        -0.796855         0.221667
 O         2.222501        -1.239440        -0.096777
 H        -0.403135        -0.778651         0.752029
 H        -0.698500         0.652855        -0.193721
 H        -0.316239        -0.691388        -1.049614
 H         1.887007         1.801115         1.226794
 H         1.568072         0.417571         2.193999
 H         4.125951         0.447463         2.206924
 H         5.016190         0.616162        -0.150959
 H         2.892502         2.405854        -0.374086
 H         3.561520         1.782257        -1.842006
 H         4.275162        -1.692873         0.247414
