19
Iteration:  1247charge 0 multiplicity 1
 C         0.060625        -0.142043        -0.058005
 C         1.532420         0.015877         0.020224
 C         1.990752         0.735642         1.348059
 C         3.472538         0.387335         1.192297
 C         3.999761         0.680972        -0.127009
 C         3.037600         1.431602        -1.054973
 O         1.772535         0.899111        -1.094069
 C         3.544989        -0.812160         0.303704
 O         2.244915        -1.152003        -0.141340
 H        -0.328390        -1.028391         0.581386
 H        -0.360577         0.733474         0.401552
 H        -0.391855        -0.319522        -1.097059
 H         1.698168         1.836210         1.396965
 H         1.528353         0.203223         2.184968
 H         4.105421         0.520467         2.084484
 H         5.072836         0.875934        -0.398361
 H         3.030223         2.427226        -0.630534
 H         3.299472         1.516903        -2.128923
 H         4.211450        -1.671092         0.424531
