19
Iteration:  2914
 C         0.016244        -0.285955        -0.160197
 C         1.458695         0.090781         0.053042
 C         1.949940         0.663488         1.311769
 C         3.492369         0.410527         1.262840
 C         4.056995         0.588395        -0.108544
 C         3.128069         1.366920        -1.068711
 O         1.735352         1.054995        -0.930694
 C         3.533093        -0.759274         0.220872
 O         2.258139        -1.095779        -0.184841
 H        -0.350798        -1.197566         0.372677
 H        -0.534899         0.557700         0.302893
 H        -0.432799        -0.307219        -1.195442
 H         1.771199         1.793408         1.261176
 H         1.686898         0.225744         2.275568
 H         4.082301         0.413332         2.185547
 H         5.090220         0.896754        -0.329940
 H         3.457767         2.443006        -0.914384
 H         3.376659         1.165334        -2.177294
 H         4.137934        -1.613503         0.484637
