19
Iteration:  2509charge 0 multiplicity 1
 C        -0.062650        -0.079976        -0.070489
 C         1.423697         0.043728         0.031852
 C         1.993578         0.636760         1.431905
 C         3.467302         0.389997         1.268821
 C         3.981283         0.697343        -0.101772
 C         3.123742         1.369575        -1.100990
 O         1.780578         0.861544        -1.050388
 C         3.611843        -0.706242         0.227400
 O         2.298206        -1.143521        -0.210307
 H        -0.487978        -0.989694         0.141562
 H        -0.550654         0.670289         0.552517
 H        -0.147593         0.094481        -1.174891
 H         1.779799         1.738128         1.506413
 H         1.403852         0.156163         2.212256
 H         4.142802         0.459618         2.184701
 H         5.108389         0.969169        -0.163269
 H         3.110306         2.406430        -0.987596
 H         3.443954         0.963719        -2.120378
 H         4.278929        -1.555218         0.325165
