19
Iteration:  4562charge 0 multiplicity 1
 C         0.016135        -0.413788        -0.149455
 C         1.466943         0.094681         0.020219
 C         1.894353         0.658998         1.452334
 C         3.374571         0.422593         1.201698
 C         4.010452         0.563385        -0.178401
 C         3.142807         1.205380        -1.170824
 O         1.814791         1.258692        -0.752453
 C         3.583982        -0.779335         0.306400
 O         2.272276        -0.984090        -0.350789
 H        -0.232312        -0.925394         0.778490
 H        -0.526936         0.542044        -0.073853
 H        -0.200651        -0.945873        -1.147520
 H         1.708666         1.674706         1.534921
 H         1.471321         0.090699         2.389318
 H         4.152255         0.398326         2.057727
 H         4.901733         0.972850        -0.058379
 H         3.492132         2.236217        -1.286189
 H         3.392868         0.710415        -2.131937
 H         4.381726        -1.534719         0.354490
