19
Iteration:   181
 C        -0.077473        -0.245836        -0.014861
 C         1.521950         0.081479        -0.009112
 C         1.986756         0.688027         1.347296
 C         3.511852         0.442713         1.213542
 C         3.968950         0.645680        -0.140252
 C         3.134048         1.422110        -1.048672
 O         1.808943         0.919875        -1.143478
 C         3.556634        -0.751122         0.198183
 O         2.194800        -1.119858        -0.043307
 H        -0.106857        -1.120855         0.712822
 H        -0.726599         0.678363         0.282918
 H        -0.316980        -0.579805        -1.092538
 H         1.710422         1.691733         1.421378
 H         1.628398         0.125367         2.239792
 H         4.182776         0.634505         2.025084
 H         5.018247         0.814087        -0.196378
 H         3.272791         2.485595        -0.665047
 H         3.634229         1.309703        -1.972290
 H         4.214815        -1.615226         0.222967
