19
Iteration:  2247
 C        -0.065277        -0.184017         0.005828
 C         1.382243         0.074481         0.084444
 C         2.045934         0.701935         1.404989
 C         3.507549         0.374756         1.246511
 C         3.982225         0.664853        -0.145728
 C         3.193245         1.483914        -1.110089
 O         1.853588         0.880328        -1.211187
 C         3.547944        -0.723326         0.200516
 O         2.182709        -1.162489        -0.091732
 H        -0.191623        -1.044071         0.705147
 H        -0.627578         0.656414         0.403676
 H        -0.423477        -0.633068        -0.987002
 H         1.703645         1.710235         1.583790
 H         1.718975         0.079331         2.217416
 H         4.141944         0.511332         2.153193
 H         5.048868         0.711523        -0.343219
 H         2.944361         2.518522        -0.796090
 H         3.561979         1.523800        -2.095872
 H         4.222946        -1.611456         0.308726
