19
Iteration:  1721
 C        -0.007585        -0.257898        -0.041149
 C         1.489340         0.047349         0.066798
 C         2.024909         0.620620         1.350277
 C         3.459663         0.482633         1.184777
 C         3.971979         0.570221        -0.302440
 C         3.135285         1.475397        -1.140668
 O         1.823726         0.948936        -1.041079
 C         3.515067        -0.713389         0.354085
 O         2.214488        -1.138927        -0.078724
 H        -0.398594        -1.041550         0.563786
 H        -0.424012         0.714617         0.242159
 H        -0.391762        -0.148272        -1.119847
 H         1.646286         1.683405         1.532711
 H         1.615471        -0.018101         2.216439
 H         4.128999         0.744817         2.029567
 H         5.034520         0.467836        -0.314505
 H         3.077523         2.477107        -0.685326
 H         3.522786         1.545543        -2.162596
 H         4.320397        -1.468023         0.500189
