19
Iteration:  2283charge 0 multiplicity 1
 C         0.022870        -0.047440        -0.007043
 C         1.483278         0.061441         0.020984
 C         2.021751         0.761992         1.245754
 C         3.461917         0.352885         1.280585
 C         3.943720         0.631295        -0.122097
 C         3.011429         1.460861        -0.987504
 O         1.766492         0.782729        -1.178773
 C         3.610444        -0.768037         0.226533
 O         2.270122        -1.204508        -0.109313
 H        -0.086119        -1.065158         0.401894
 H        -0.427585         0.649067         0.769109
 H        -0.478198         0.236169        -1.072643
 H         1.996495         1.891976         1.365106
 H         1.567464         0.338026         2.175384
 H         4.058586         0.439997         2.131540
 H         5.013544         0.767544        -0.280744
 H         3.050095         2.452376        -0.463325
 H         3.418515         1.658050        -1.979904
 H         4.440416        -1.449048         0.216548
