19
Iteration:  1922
 C        -0.080487        -0.184255        -0.006548
 C         1.478334         0.082767         0.036436
 C         2.039074         0.641322         1.369647
 C         3.533261         0.399933         1.328783
 C         4.007619         0.678544        -0.122496
 C         3.101673         1.314181        -1.168588
 O         1.742591         0.989751        -1.112783
 C         3.570733        -0.774104         0.260605
 O         2.238850        -1.079298        -0.178772
 H        -0.490902        -1.094209         0.556187
 H        -0.654711         0.595380         0.489224
 H        -0.449438        -0.381528        -1.024446
 H         1.877371         1.726933         1.498760
 H         1.659045         0.086679         2.294551
 H         4.209755         0.562586         2.139679
 H         5.076553         0.871785        -0.178423
 H         3.243019         2.430843        -1.146208
 H         3.497288         0.935014        -2.118559
 H         4.331390        -1.577514         0.323138
