19
Iteration:   780
 C         0.010151        -0.204556        -0.038687
 C         1.463192         0.047574         0.043272
 C         1.956324         0.690850         1.392378
 C         3.434855         0.436823         1.265907
 C         4.051205         0.555644        -0.225118
 C         3.108415         1.399988        -1.249526
 O         1.775119         0.987531        -1.005427
 C         3.568554        -0.744968         0.337537
 O         2.262039        -1.116514        -0.169181
 H        -0.438814        -0.902946         0.729321
 H        -0.436536         0.833944         0.190589
 H        -0.426630        -0.602742        -0.937642
 H         1.781097         1.711648         1.396563
 H         1.650028         0.149152         2.288776
 H         4.247178         0.650782         1.973915
 H         5.061964         0.752430        -0.029793
 H         3.408034         2.445176        -0.970707
 H         3.194131         1.079260        -2.362418
 H         4.059812        -1.608457         0.749431
