19
Iteration:  1799charge 0 multiplicity 1
 C        -0.049213        -0.271042        -0.000383
 C         1.400914         0.091519         0.053332
 C         1.963320         0.562158         1.370850
 C         3.448180         0.480868         1.190016
 C         4.036042         0.645038        -0.217717
 C         3.191395         1.137707        -1.244095
 O         1.722532         1.191099        -0.893646
 C         3.586347        -0.765546         0.358748
 O         2.341356        -0.986120        -0.226801
 H        -0.367902        -0.781910         0.879858
 H        -0.714143         0.649621        -0.017701
 H        -0.276316        -0.845554        -0.926371
 H         1.556087         1.506588         1.738676
 H         1.559139        -0.248482         2.119283
 H         4.216050         0.712540         1.996154
 H         5.109955         0.861085        -0.105185
 H         3.358797         2.160700        -1.641463
 H         3.358577         0.498678        -2.123719
 H         4.062939        -1.723485         0.427680
