19
Iteration:  2036
 C        -0.012536        -0.115379         0.004635
 C         1.480041         0.084891         0.030080
 C         2.007513         0.610798         1.352240
 C         3.514394         0.362323         1.285925
 C         3.971982         0.707619        -0.142544
 C         3.121900         1.344693        -1.198286
 O         1.725027         0.987182        -1.082744
 C         3.620023        -0.704147         0.258786
 O         2.226061        -1.189087        -0.119103
 H        -0.380566        -0.641911         0.873720
 H        -0.515759         0.903389         0.086061
 H        -0.222684        -0.699972        -0.897716
 H         1.588006         1.605646         1.422365
 H         1.521280         0.024013         2.077159
 H         4.086434         0.204060         2.171283
 H         5.040892         1.042087        -0.293017
 H         3.350402         2.439149        -0.995913
 H         3.405710         1.098690        -2.183943
 H         4.274609        -1.613509         0.425004
