19
Iteration:  3736
 C         0.005811        -0.404879        -0.154896
 C         1.409407         0.209148         0.017404
 C         1.928082         0.601945         1.472119
 C         3.501167         0.359222         1.288894
 C         4.032783         0.625577        -0.092766
 C         3.215906         1.272635        -1.196986
 O         1.786139         1.203733        -0.948188
 C         3.477406        -0.782843         0.297672
 O         2.244706        -0.985048        -0.264006
 H        -0.161230        -1.220171         0.580227
 H        -0.763355         0.374936        -0.000753
 H        -0.257918        -0.911539        -1.108592
 H         1.613776         1.609613         1.533527
 H         1.702154        -0.019033         2.386107
 H         4.075959         0.579552         2.177500
 H         5.193135         0.821666        -0.176527
 H         3.607705         2.348199        -1.326825
 H         3.271477         0.600808        -2.059377
 H         4.182526        -1.613048         0.360102
