19
Iteration:  4053charge 0 multiplicity 1
 C         0.029325        -0.163690        -0.069772
 C         1.511080         0.119395         0.012786
 C         1.978439         0.609303         1.356156
 C         3.475517         0.322338         1.262310
 C         4.014955         0.678159        -0.169024
 C         3.057210         1.557310        -0.926409
 O         1.916759         0.802540        -1.214464
 C         3.507657        -0.719583         0.239653
 O         2.168690        -1.095669        -0.139831
 H        -0.401486        -0.566207         0.855524
 H        -0.554674         0.726737        -0.245368
 H        -0.275420        -0.727243        -0.908491
 H         1.653420         1.578442         1.631017
 H         1.607197        -0.053015         2.159492
 H         4.065435         0.206951         2.207383
 H         5.145334         0.720302        -0.087012
 H         2.762820         2.413590        -0.409968
 H         3.400483         1.805293        -1.902803
 H         4.151214        -1.634942         0.436358
