19
Iteration:  4035
 C        -0.004275        -0.089525        -0.121580
 C         1.471092         0.048642         0.049959
 C         1.972844         0.626879         1.418492
 C         3.460158         0.349672         1.265141
 C         4.017114         0.695959        -0.050563
 C         3.126479         1.505149        -1.028337
 O         1.781840         0.870562        -1.116031
 C         3.559558        -0.767071         0.167613
 O         2.246148        -1.184534        -0.145883
 H        -0.371695        -0.658396         0.695604
 H        -0.442638         0.922132        -0.316792
 H        -0.228644        -0.749062        -1.083883
 H         1.680108         1.714310         1.523624
 H         1.414067         0.041724         2.133760
 H         4.094295         0.391262         2.152393
 H         4.967969         0.971278        -0.218755
 H         3.152345         2.580975        -0.566294
 H         3.535143         1.558216        -2.085155
 H         4.322446        -1.572158         0.094507
