19
Iteration:  2530charge 0 multiplicity 1
 C        -0.038863        -0.126947        -0.140748
 C         1.486818         0.006071         0.025662
 C         1.913477         0.611605         1.384646
 C         3.434079         0.421602         1.253545
 C         4.014822         0.684835        -0.149160
 C         3.140265         1.231751        -1.254653
 O         1.724352         1.089030        -0.851272
 C         3.653011        -0.748630         0.311393
 O         2.309171        -1.121939        -0.207282
 H        -0.387490        -1.097725        -0.026714
 H        -0.504609         0.500628         0.615424
 H        -0.320393         0.228868        -1.180189
 H         1.496400         1.645438         1.430265
 H         1.661979         0.080751         2.332117
 H         4.102490         0.507491         2.159805
 H         5.136763         0.803059        -0.057516
 H         3.270624         2.296337        -1.200293
 H         3.245989         0.815583        -2.206536
 H         4.326183        -1.592834         0.452500
