19
Iteration:  4219
 C         0.055194        -0.334930        -0.087235
 C         1.523944         0.098700        -0.029808
 C         1.967747         0.619630         1.462832
 C         3.395820         0.384818         1.237030
 C         3.972152         0.641224        -0.145667
 C         3.235321         1.499204        -1.132560
 O         1.805001         1.064574        -1.054115
 C         3.466338        -0.832032         0.273696
 O         2.177833        -1.077414        -0.155343
 H        -0.070432        -0.916997         0.795456
 H        -0.627734         0.432133        -0.308964
 H         0.029946        -1.015611        -0.976729
 H         1.623326         1.690591         1.484212
 H         1.550883         0.073737         2.263741
 H         4.058736         0.542219         2.120034
 H         5.039221         0.822290        -0.094173
 H         3.503304         2.615598        -0.712895
 H         3.556395         1.381148        -2.158769
 H         4.015078        -1.712318         0.543425
