19
Iteration:  4767
 C        -0.067676        -0.255352        -0.177498
 C         1.443550         0.086092         0.075124
 C         1.938308         0.517329         1.493686
 C         3.454663         0.330247         1.319538
 C         4.094339         0.710483        -0.125279
 C         3.134017         1.211607        -1.265167
 O         1.742609         1.243209        -0.818651
 C         3.648456        -0.704126         0.213685
 O         2.271345        -1.047561        -0.241770
 H        -0.681368        -0.846461         0.388747
 H        -0.635590         0.634122        -0.356266
 H         0.071734        -0.827765        -1.183353
 H         1.540691         1.535478         1.570582
 H         1.588346        -0.207460         2.255760
 H         4.093296         0.490343         2.219634
 H         5.064367         0.871536        -0.298300
 H         3.447211         2.255183        -1.666863
 H         3.159403         0.526652        -2.114132
 H         4.189420        -1.679389         0.300496
