19
Iteration:  1249charge 0 multiplicity 1
 C         0.078146        -0.152741        -0.044499
 C         1.527220         0.015078         0.018463
 C         1.986847         0.743719         1.347203
 C         3.461906         0.387778         1.191647
 C         3.985803         0.678152        -0.146471
 C         3.036302         1.427971        -1.040066
 O         1.771492         0.900688        -1.082363
 C         3.547439        -0.806095         0.301325
 O         2.256706        -1.155137        -0.147886
 H        -0.396269        -0.990152         0.535038
 H        -0.349255         0.783493         0.387210
 H        -0.329131        -0.295469        -1.089325
 H         1.692639         1.860131         1.317809
 H         1.561038         0.251697         2.151655
 H         4.091249         0.516667         2.079349
 H         5.059586         0.858486        -0.360016
 H         3.012549         2.397604        -0.618739
 H         3.373627         1.525241        -2.128481
 H         4.157442        -1.748512         0.423233
