19
Iteration:  2789charge 0 multiplicity 1
 C         0.018373        -0.354111        -0.183975
 C         1.440817         0.197051         0.042617
 C         1.925167         0.581706         1.470503
 C         3.435821         0.398296         1.281311
 C         3.981741         0.624821        -0.160878
 C         3.162930         1.192190        -1.280014
 O         1.816822         1.204293        -0.849835
 C         3.581454        -0.723139         0.325740
 O         2.240431        -1.034912        -0.242900
 H        -0.260939        -1.106315         0.508117
 H        -0.715501         0.440020         0.073119
 H        -0.164226        -0.772721        -1.189874
 H         1.725510         1.562828         1.707081
 H         1.566923         0.088215         2.328313
 H         4.166439         0.630594         2.101007
 H         5.056938         0.783159        -0.168300
 H         3.418179         2.355683        -1.372027
 H         3.384127         0.617974        -2.195269
 H         4.156673        -1.674922         0.299233
