19
Iteration:  1414charge 0 multiplicity 1
 C        -0.115093        -0.354160        -0.064409
 C         1.468429         0.080982         0.051211
 C         1.986911         0.688062         1.369067
 C         3.453263         0.443212         1.223054
 C         4.091792         0.612578        -0.199597
 C         3.124479         1.281907        -1.150328
 O         1.717878         1.110550        -0.954538
 C         3.614893        -0.747349         0.348327
 O         2.283165        -1.076635        -0.218874
 H        -0.407675        -1.173697         0.619230
 H        -0.621866         0.644276         0.169283
 H        -0.266491        -0.513393        -1.114493
 H         1.867927         1.783003         1.330229
 H         1.617255         0.277179         2.268866
 H         4.119558         0.446204         2.117136
 H         5.142540         0.906782        -0.218468
 H         3.335600         2.391505        -1.138754
 H         3.367808         0.943564        -2.163952
 H         4.137810        -1.684189         0.525564
