19
Iteration:  4733charge 0 multiplicity 1
 C         0.008277        -0.159048        -0.062935
 C         1.507262         0.097245         0.053330
 C         1.961876         0.519244         1.444519
 C         3.437792         0.358300         1.321774
 C         3.996352         0.673681        -0.101319
 C         3.126339         1.291329        -1.183136
 O         1.701180         1.135401        -0.971409
 C         3.602254        -0.754888         0.247960
 O         2.292220        -1.088096        -0.294374
 H        -0.293406        -0.868131         0.651200
 H        -0.601041         0.744954        -0.174362
 H         0.044730        -0.571986        -1.147927
 H         1.429300         1.472047         1.767766
 H         1.499560        -0.211505         2.104331
 H         4.086621         0.566194         2.206396
 H         5.023757         0.850055        -0.209241
 H         3.413460         2.389963        -1.273990
 H         3.408405         0.820053        -2.147069
 H         4.217975        -1.628833         0.381361
