19
Iteration:  3751charge 0 multiplicity 1
 C         0.079201        -0.357587        -0.150670
 C         1.467050         0.141469         0.037778
 C         1.890183         0.634832         1.437964
 C         3.357259         0.372974         1.298060
 C         4.068974         0.610818        -0.124857
 C         3.168256         1.161564        -1.252400
 O         1.785718         1.254327        -0.843097
 C         3.576794        -0.704249         0.280311
 O         2.225539        -0.981967        -0.259720
 H         0.133197        -1.334988         0.519966
 H        -0.753107         0.317523         0.108650
 H         0.023035        -0.611710        -1.200655
 H         1.682566         1.738366         1.761716
 H         1.322267        -0.071732         2.098156
 H         4.089301         0.099160         2.075161
 H         5.052526         0.742721        -0.195889
 H         3.334453         2.234325        -1.553778
 H         3.408337         0.563133        -2.159025
 H         4.039835        -1.707778         0.429133
