19
Iteration:  4649charge 0 multiplicity 1
 C        -0.047360        -0.141300        -0.122170
 C         1.464441         0.096876        -0.024900
 C         2.001824         0.627099         1.349973
 C         3.535922         0.411416         1.241021
 C         4.041578         0.628618        -0.140919
 C         3.110891         1.558638        -0.936893
 O         1.736780         0.930822        -1.100823
 C         3.568521        -0.828242         0.222284
 O         2.263853        -1.214516        -0.105089
 H        -0.501132        -0.970140         0.367231
 H        -0.533513         0.722830         0.265090
 H        -0.327143        -0.348277        -1.172451
 H         1.839503         1.623606         1.371450
 H         1.565847         0.085424         2.214269
 H         4.051120         0.506120         2.242012
 H         5.024145         0.759274        -0.257748
 H         2.854814         2.453516        -0.421074
 H         3.403670         1.706161        -1.955603
 H         4.312254        -1.621053         0.125422
