19
Iteration:  2069charge 0 multiplicity 1
 C        -0.044297        -0.211867         0.011319
 C         1.448236         0.093313         0.050973
 C         2.010555         0.792011         1.273935
 C         3.504216         0.475097         1.210148
 C         4.032980         0.531571        -0.282662
 C         3.088707         1.463665        -0.952204
 O         1.817245         0.852613        -1.092456
 C         3.538650        -0.780134         0.263145
 O         2.223662        -1.167527        -0.125900
 H        -0.253351        -1.130663         0.571150
 H        -0.690540         0.676716         0.371352
 H        -0.383915        -0.296540        -1.001235
 H         1.654169         1.808546         1.159930
 H         1.609861         0.398229         2.166361
 H         4.210955         0.510160         1.986825
 H         5.129584         0.732638        -0.463980
 H         3.191234         2.333386        -0.239893
 H         3.391866         1.807240        -1.901763
 H         4.343528        -1.552425         0.491135
