19
Iteration:  3090charge 0 multiplicity 1
 C        -0.081554        -0.154219        -0.044181
 C         1.454727         0.028492         0.031946
 C         1.950378         0.583911         1.288222
 C         3.460589         0.402894         1.245796
 C         4.095052         0.599775        -0.092808
 C         3.135077         1.497978        -1.027022
 O         1.763775         0.951607        -1.073334
 C         3.623154        -0.744778         0.275918
 O         2.257086        -1.152288        -0.210249
 H        -0.466805        -0.973731         0.565100
 H        -0.396341         0.831414         0.373185
 H        -0.449451        -0.345804        -1.079946
 H         1.608745         1.646942         1.315518
 H         1.340987         0.141803         2.053141
 H         4.115917         0.273080         2.075423
 H         5.072981         0.841148        -0.180935
 H         2.997554         2.597239        -0.704052
 H         3.551498         1.612120        -2.014622
 H         4.450888        -1.367493         0.542493
