19
Iteration:  2258
 C        -0.117035        -0.172982         0.038953
 C         1.466462         0.065704         0.048653
 C         2.077459         0.668913         1.393678
 C         3.541124         0.323313         1.281621
 C         4.019658         0.726797        -0.108945
 C         3.057553         1.504971        -1.089366
 O         1.841340         0.780623        -1.311975
 C         3.533713        -0.729646         0.268283
 O         2.182893        -1.089761        -0.090314
 H        -0.383834        -1.067733         0.628117
 H        -0.668647         0.682668         0.421200
 H        -0.397482        -0.166379        -1.088150
 H         2.086531         1.745069         1.500852
 H         1.591798         0.252003         2.247278
 H         4.179906         0.063051         2.132500
 H         5.086794         0.891361        -0.208634
 H         3.086152         2.580637        -0.762659
 H         3.573769         1.455888        -2.003728
 H         4.314436        -1.519966         0.115742
