19
Iteration:  2278charge 0 multiplicity 1
 C         0.024993        -0.040565        -0.017460
 C         1.452626         0.077498        -0.013882
 C         2.044946         0.773063         1.267620
 C         3.495917         0.285344         1.324178
 C         3.955221         0.669154        -0.086327
 C         3.014308         1.451223        -1.006476
 O         1.761192         0.746741        -1.196517
 C         3.602275        -0.760764         0.192389
 O         2.266496        -1.156089        -0.095365
 H        -0.136602        -1.027990         0.446988
 H        -0.364429         0.594979         0.737328
 H        -0.364116         0.169127        -0.936951
 H         1.935456         1.831147         1.349084
 H         1.482926         0.343814         2.089611
 H         4.182759         0.475077         2.216935
 H         5.007935         0.846349        -0.319263
 H         2.774376         2.435508        -0.476568
 H         3.385790         1.601509        -2.036985
 H         4.375228        -1.571145         0.219307
