19
Iteration:   878charge 0 multiplicity 1
 C        -0.048358        -0.207986         0.083304
 C         1.388013         0.076362         0.046515
 C         1.954561         0.645561         1.298393
 C         3.454820         0.426648         1.199073
 C         4.070259         0.623234        -0.245330
 C         3.195371         1.401331        -1.139661
 O         1.749738         1.092180        -1.068471
 C         3.566647        -0.767653         0.311300
 O         2.298385        -1.250043        -0.132974
 H        -0.439068        -0.928551         0.846311
 H        -0.624131         0.697428         0.251989
 H        -0.395626        -0.602848        -0.848015
 H         1.564959         1.782338         1.254178
 H         1.482683         0.121505         2.167456
 H         4.033527         0.779379         2.075669
 H         5.147811         0.815351        -0.314063
 H         3.319337         2.462652        -0.940896
 H         3.807809         1.250977        -2.109802
 H         4.164527        -1.603898         0.739580
