19
Iteration:   999charge 0 multiplicity 1
 C         0.025138        -0.199149        -0.054430
 C         1.484856         0.093787         0.083807
 C         2.034955         0.657758         1.344678
 C         3.486308         0.340732         1.322356
 C         4.041495         0.676635        -0.076964
 C         3.078642         1.331682        -1.232002
 O         1.684454         1.020922        -1.066863
 C         3.559788        -0.757104         0.246687
 O         2.252753        -1.108784        -0.109520
 H        -0.464248        -0.761489         0.782632
 H        -0.426015         0.726307        -0.173746
 H        -0.172712        -0.703738        -1.011128
 H         1.748054         1.783949         1.390033
 H         1.553475         0.153255         2.258727
 H         3.995013         0.297755         2.278933
 H         5.113680         1.004900        -0.177734
 H         3.333143         2.381168        -1.399519
 H         3.268780         0.877482        -2.156869
 H         4.325764        -1.463010        -0.026452
