19
Iteration:  2499charge 0 multiplicity 1
 C        -0.068100        -0.141098        -0.041205
 C         1.500244         0.085980        -0.007604
 C         1.991462         0.640729         1.375028
 C         3.498944         0.353089         1.370384
 C         4.017342         0.696849        -0.099785
 C         3.127095         1.409066        -1.128978
 O         1.751223         0.888490        -1.147902
 C         3.583486        -0.684210         0.249770
 O         2.228436        -1.163733        -0.151847
 H        -0.349777        -1.073636         0.333395
 H        -0.567684         0.724780         0.414025
 H        -0.461428        -0.059122        -1.082799
 H         1.725896         1.711184         1.563699
 H         1.623760         0.019517         2.179683
 H         4.244317         0.219250         2.231111
 H         5.149794         0.685670        -0.204110
 H         3.074931         2.429650        -0.842320
 H         3.556011         1.503215        -2.226529
 H         4.328669        -1.464179         0.362245
