19
Iteration:  1243charge 0 multiplicity 1
 C         0.010967        -0.146668        -0.077826
 C         1.521638         0.035715         0.019456
 C         1.999471         0.710656         1.345244
 C         3.491720         0.391766         1.219965
 C         4.030680         0.674166        -0.116459
 C         3.053116         1.444056        -1.081617
 O         1.767302         0.891774        -1.113934
 C         3.546445        -0.807483         0.302667
 O         2.227490        -1.151757        -0.126473
 H        -0.142517        -0.993093         0.587730
 H        -0.448982         0.717964         0.426715
 H        -0.420400        -0.326017        -1.022441
 H         1.742557         1.718108         1.512937
 H         1.505555         0.136665         2.232208
 H         4.131745         0.498881         2.082400
 H         5.038945         0.880929        -0.387653
 H         3.045982         2.549473        -0.667383
 H         3.262964         1.498470        -2.132631
 H         4.325963        -1.533795         0.419790
