19
Iteration:  1030charge 0 multiplicity 1
 C        -0.083119        -0.205361        -0.023107
 C         1.445487         0.086516         0.043380
 C         2.030340         0.702304         1.295516
 C         3.520733         0.474965         1.231402
 C         3.984627         0.553603        -0.203691
 C         3.094554         1.403111        -1.036468
 O         1.813942         0.927713        -1.071530
 C         3.540224        -0.777324         0.300360
 O         2.267791        -1.128488        -0.161264
 H        -0.414675        -0.867474         0.819130
 H        -0.662360         0.639130         0.067904
 H        -0.287935        -0.671952        -0.968308
 H         1.666085         1.838144         1.233315
 H         1.613269         0.293121         2.242762
 H         4.082658         0.593981         2.164379
 H         5.066604         0.869209        -0.235919
 H         3.325791         2.446499        -0.550169
 H         3.390860         1.403095        -2.097926
 H         4.325573        -1.568681         0.303789
