19
Iteration:  3860
 C        -0.011782        -0.337591        -0.054789
 C         1.436763         0.123089        -0.027060
 C         2.042360         0.826482         1.281750
 C         3.431851         0.336834         1.294510
 C         4.065423         0.534925        -0.137100
 C         3.088189         1.441524        -0.881059
 O         1.811377         0.969732        -1.087024
 C         3.553131        -0.791870         0.230325
 O         2.233436        -1.104942        -0.247234
 H        -0.445849        -0.741120         0.892438
 H        -0.700588         0.518567        -0.158563
 H        -0.186775        -1.002650        -0.938801
 H         1.976449         1.968466         1.110392
 H         1.417932         0.667860         2.185031
 H         4.141935         0.391007         2.145610
 H         5.014742         0.790855        -0.145219
 H         2.918738         2.439334        -0.306465
 H         3.612483         1.857095        -1.682350
 H         4.071932        -1.710795         0.305562
