19
Iteration:  3737
 C         0.012885        -0.405171        -0.158496
 C         1.413909         0.211448         0.008717
 C         1.920510         0.598974         1.476546
 C         3.502600         0.357117         1.283870
 C         4.039868         0.626304        -0.095530
 C         3.212727         1.265202        -1.198638
 O         1.788663         1.205760        -0.942617
 C         3.476681        -0.781979         0.297860
 O         2.238460        -0.979124        -0.262663
 H        -0.164632        -1.260658         0.609155
 H        -0.765155         0.369538         0.026258
 H        -0.235012        -0.900254        -1.108443
 H         1.593171         1.642068         1.543507
 H         1.679847        -0.017269         2.412383
 H         4.071626         0.549343         2.194090
 H         5.153299         0.816616        -0.181460
 H         3.599811         2.362054        -1.357079
 H         3.265971         0.592322        -2.064111
 H         4.221683        -1.602814         0.385247
