19
Iteration:  2501
 C        -0.069467        -0.124251        -0.042942
 C         1.485194         0.082153        -0.009400
 C         1.988530         0.643388         1.386907
 C         3.498984         0.361442         1.366143
 C         4.009222         0.708519        -0.106682
 C         3.129734         1.388310        -1.126015
 O         1.753251         0.876235        -1.125839
 C         3.598968        -0.680411         0.238820
 O         2.237105        -1.164911        -0.168555
 H        -0.419875        -1.135361         0.270856
 H        -0.573723         0.754106         0.424992
 H        -0.369160        -0.021728        -1.078256
 H         1.759546         1.707705         1.566517
 H         1.585917         0.040865         2.200931
 H         4.237955         0.235308         2.208226
 H         5.083534         0.686363        -0.146268
 H         3.096507         2.475666        -0.825518
 H         3.534444         1.415948        -2.244355
 H         4.330469        -1.472686         0.394709
