19
Iteration:  1761
 C         0.011174        -0.361875        -0.042060
 C         1.470495         0.137317         0.045100
 C         2.011128         0.729464         1.398739
 C         3.467671         0.262355         1.348553
 C         3.963650         0.699819        -0.115713
 C         3.149719         1.171166        -1.310010
 O         1.710966         1.144112        -0.939741
 C         3.528218        -0.729080         0.290908
 O         2.290937        -0.980147        -0.219758
 H        -0.178536        -1.331222         0.509815
 H        -0.558127         0.428670         0.378156
 H        -0.240711        -0.572675        -1.063882
 H         1.982167         1.836083         1.356705
 H         1.564953         0.377927         2.282971
 H         4.139118         0.496193         2.099904
 H         4.974965         1.019599        -0.273085
 H         3.525873         2.119511        -1.706575
 H         3.163987         0.347904        -2.090473
 H         4.174668        -1.620356         0.225175
