19
Iteration:   342charge 0 multiplicity 1
 C        -0.037098        -0.262649        -0.170778
 C         1.465701         0.111751         0.036820
 C         2.018875         0.719892         1.384122
 C         3.512790         0.388518         1.220222
 C         4.013853         0.646327        -0.178101
 C         3.147079         1.420588        -1.161263
 O         1.782218         0.970660        -1.014178
 C         3.531983        -0.692557         0.320354
 O         2.203537        -1.179870        -0.052889
 H        -0.428771        -1.022471         0.500838
 H        -0.677748         0.576874        -0.077939
 H        -0.226798        -0.510261        -1.192253
 H         1.829689         1.747116         1.628169
 H         1.726944         0.075126         2.316568
 H         4.188352         0.347851         2.088901
 H         5.086131         0.781827        -0.267183
 H         3.128957         2.498057        -1.054953
 H         3.277348         0.999650        -2.233397
 H         4.291341        -1.505576         0.498663
