19
Iteration:  3195charge 0 multiplicity 1
 C         0.019207        -0.235404        -0.117669
 C         1.468944         0.179532         0.018282
 C         1.922841         0.487223         1.445382
 C         3.420377         0.351600         1.332799
 C         3.990547         0.680320        -0.068250
 C         3.185495         1.282889        -1.245002
 O         1.742842         1.133074        -0.942536
 C         3.577524        -0.764548         0.225964
 O         2.266061        -1.030085        -0.203468
 H        -0.134251        -0.790372         0.782164
 H        -0.713416         0.612824        -0.244954
 H         0.129195        -0.898320        -1.056880
 H         1.557225         1.566566         1.760925
 H         1.554373        -0.315040         2.119698
 H         4.087305         0.505621         2.131459
 H         5.059571         1.051197        -0.243300
 H         3.392375         2.301102        -1.378639
 H         3.390529         0.678165        -2.166926
 H         4.318361        -1.505505         0.087055
