19
Iteration:  2829
 C        -0.113785        -0.236920        -0.082906
 C         1.445543         0.059005         0.000112
 C         2.021988         0.688375         1.338146
 C         3.504771         0.314871         1.316041
 C         4.018723         0.614190        -0.133145
 C         3.146208         1.432617        -1.042849
 O         1.779289         1.036808        -1.058743
 C         3.525879        -0.804181         0.296639
 O         2.285750        -1.086275        -0.219619
 H        -0.273383        -0.638803         0.896369
 H        -0.731489         0.656547        -0.283650
 H        -0.230948        -1.082027        -0.843433
 H         1.809635         1.819955         1.375893
 H         1.521251         0.152186         2.249842
 H         4.155768         0.544354         2.157842
 H         5.047256         0.971210        -0.272498
 H         3.179597         2.438337        -0.735073
 H         3.420407         1.281918        -2.100279
 H         4.276390        -1.546332         0.248610
