19
Iteration:  3578
 C         0.016636        -0.220191        -0.157339
 C         1.505312         0.094248         0.035145
 C         1.888844         0.488127         1.484039
 C         3.425414         0.410597         1.309310
 C         3.978545         0.695106        -0.072078
 C         3.149743         1.146656        -1.319353
 O         1.803189         1.212600        -0.910957
 C         3.539648        -0.687746         0.302841
 O         2.316397        -1.031423        -0.265608
 H        -0.369546        -0.998443         0.556042
 H        -0.559889         0.622353         0.142628
 H        -0.136877        -0.506943        -1.147362
 H         1.447864         1.460521         1.799079
 H         1.617240        -0.266318         2.125399
 H         3.875131         0.515185         2.309487
 H         4.953491         0.948008        -0.058621
 H         3.550693         2.225323        -1.762383
 H         3.312082         0.274029        -1.968769
 H         4.156894        -1.655396         0.386761
