19
Iteration:   328charge 0 multiplicity 1
 C         0.038509        -0.153701        -0.250875
 C         1.453413         0.046897         0.113719
 C         2.011233         0.702014         1.414706
 C         3.476073         0.405106         1.290491
 C         4.018959         0.672239        -0.173557
 C         3.048396         1.265670        -1.161445
 O         1.713347         0.964627        -0.935812
 C         3.566098        -0.733043         0.177277
 O         2.274254        -1.103743        -0.033472
 H        -0.321447        -0.939316         0.452058
 H        -0.448487         0.799206        -0.202215
 H         0.124955        -0.557202        -1.233218
 H         1.740613         1.810383         1.293596
 H         1.449537         0.282462         2.196992
 H         4.147517         0.323413         2.132340
 H         5.073903         0.902410        -0.419466
 H         3.179686         2.373995        -1.188980
 H         3.486834         0.997262        -2.123624
 H         4.215649        -1.607408         0.237060
