19
Iteration:   600
 C         0.047445        -0.246503        -0.006617
 C         1.498353         0.130111         0.066302
 C         2.044784         0.755847         1.286743
 C         3.509202         0.382840         1.275618
 C         4.009208         0.601056        -0.150451
 C         3.113004         1.507380        -1.065590
 O         1.766401         0.848212        -1.135396
 C         3.445507        -0.718009         0.262091
 O         2.197765        -1.148068        -0.113848
 H        -0.121573        -1.084316         0.729202
 H        -0.627788         0.509900         0.214829
 H        -0.166304        -0.725052        -0.951093
 H         1.737652         1.894791         1.195701
 H         1.491501         0.430835         2.177027
 H         4.093564         0.357592         2.202935
 H         5.045185         0.582241        -0.446749
 H         3.050600         2.573780        -0.772997
 H         3.671647         1.410451        -2.107693
 H         4.193011        -1.486613         0.275560
