19
Iteration:  2815charge 0 multiplicity 1
 C         0.092094        -0.341853        -0.081872
 C         1.468096         0.186053        -0.010986
 C         1.975730         0.615634         1.390831
 C         3.451122         0.350466         1.265538
 C         4.044263         0.626248        -0.072961
 C         3.183227         1.370987        -1.145999
 O         1.690493         1.118805        -1.036652
 C         3.579167        -0.745648         0.236766
 O         2.174177        -1.075494        -0.158463
 H        -0.424086        -0.824583         0.845747
 H        -0.549545         0.538099        -0.240641
 H        -0.114108        -0.992080        -0.912424
 H         1.777717         1.747329         1.617147
 H         1.508009         0.085778         2.242535
 H         4.055670         0.220092         2.138631
 H         5.139882         0.609559        -0.130536
 H         3.353069         2.437756        -1.084336
 H         3.607186         1.074765        -2.165891
 H         4.089281        -1.699752         0.381350
