19
Iteration:    91
 C         0.012709        -0.191256        -0.199692
 C         1.461135         0.119271         0.025788
 C         1.972906         0.622588         1.453242
 C         3.482204         0.450974         1.206478
 C         3.974058         0.620708        -0.179993
 C         3.102403         1.263519        -1.160865
 O         1.731585         1.003410        -0.972918
 C         3.622339        -0.742865         0.258759
 O         2.264396        -1.055690        -0.025585
 H        -0.259272        -0.923391         0.692987
 H        -0.611786         0.725099        -0.203015
 H        -0.204037        -0.689781        -1.179499
 H         1.668387         1.567902         1.614904
 H         1.625951        -0.255058         2.096785
 H         4.297599         0.730678         1.944361
 H         5.058668         0.919422        -0.286119
 H         3.206989         2.400551        -1.106433
 H         3.325675         0.948259        -2.160343
 H         4.227957        -1.675185         0.273331
