19
Iteration:  3259
 C        -0.009188        -0.312166        -0.072648
 C         1.479618         0.098095        -0.057676
 C         1.992169         0.755144         1.317519
 C         3.517359         0.302279         1.257451
 C         4.038495         0.567351        -0.151164
 C         3.143106         1.597888        -0.914488
 O         1.784411         0.989711        -1.156230
 C         3.518055        -0.803067         0.264493
 O         2.210526        -1.154163        -0.108058
 H        -0.129892        -1.140454         0.531644
 H        -0.615396         0.517808         0.267111
 H        -0.514593        -0.472217        -1.016960
 H         1.655370         1.797652         1.232134
 H         1.527961         0.344821         2.213287
 H         4.111111         0.363572         2.118723
 H         5.218699         0.618618        -0.179765
 H         2.793595         2.560150        -0.376934
 H         3.540408         1.857871        -1.906216
 H         4.147477        -1.664529         0.165745
