19
Iteration:   924
 C        -0.065962        -0.234846        -0.104905
 C         1.384307         0.164790         0.099131
 C         2.034321         0.710908         1.456596
 C         3.522479         0.359871         1.272173
 C         4.034894         0.673225        -0.092478
 C         3.122698         1.212523        -1.308982
 O         1.655857         1.115300        -0.985743
 C         3.627917        -0.753465         0.254035
 O         2.292836        -1.120853        -0.132037
 H        -0.327567        -1.302523         0.258662
 H        -0.884995         0.448654         0.033726
 H         0.024509        -0.442586        -1.236167
 H         1.880410         1.769886         1.541967
 H         1.544261         0.166670         2.289394
 H         4.097252         0.323524         2.190532
 H         5.153542         0.938998        -0.113287
 H         3.423784         2.200359        -1.601589
 H         3.337644         0.507074        -2.238554
 H         4.445884        -1.484917         0.407775
