19
Iteration:   626charge 0 multiplicity 1
 C        -0.066865        -0.271300         0.118223
 C         1.450170         0.064251        -0.025817
 C         1.912903         0.749784         1.300629
 C         3.426938         0.446259         1.169254
 C         4.102836         0.515452        -0.158300
 C         3.218199         1.457998        -1.051432
 O         1.746298         1.000335        -1.184970
 C         3.596284        -0.787774         0.291749
 O         2.254759        -1.162897        -0.137528
 H        -0.114232        -0.736625         1.093239
 H        -0.850410         0.605414         0.197069
 H        -0.634475        -1.023533        -0.540275
 H         1.725757         1.803791         1.281063
 H         1.470605         0.402369         2.194126
 H         4.069676         0.766235         1.981380
 H         5.201083         0.831478        -0.151382
 H         3.212260         2.399829        -0.458668
 H         3.696304         1.713562        -1.962739
 H         4.327514        -1.641574         0.329193
