19
Iteration:   888charge 0 multiplicity 1
 C        -0.048747        -0.184434         0.009595
 C         1.489726         0.141461         0.059523
 C         1.970900         0.654054         1.381117
 C         3.414015         0.508473         1.235762
 C         4.001573         0.607366        -0.181662
 C         3.201323         1.355654        -1.216238
 O         1.748362         1.030800        -1.033257
 C         3.564516        -0.781667         0.298156
 O         2.287418        -1.232213        -0.173144
 H        -0.197696        -1.015074         0.692551
 H        -0.718993         0.636714         0.286878
 H        -0.245884        -0.467990        -0.988149
 H         1.512913         1.742346         1.633264
 H         1.675085        -0.009860         2.238651
 H         4.157943         0.639348         2.031915
 H         5.069086         0.750914        -0.288624
 H         3.332142         2.444907        -1.043985
 H         3.303859         1.141536        -2.298067
 H         4.226401        -1.629452         0.547466
