19
Iteration:  4455charge 0 multiplicity 1
 C         0.046914        -0.351544        -0.010900
 C         1.478684         0.125850        -0.016110
 C         1.951766         0.807628         1.360417
 C         3.466734         0.289766         1.241543
 C         4.031948         0.556094        -0.181436
 C         3.162384         1.530128        -0.945963
 O         1.840283         1.002362        -1.141034
 C         3.439297        -0.796801         0.270146
 O         2.221595        -1.103121        -0.198044
 H         0.065388        -1.161161         0.750994
 H        -0.710407         0.417206         0.058962
 H        -0.222437        -0.978074        -0.902166
 H         1.632848         1.833185         1.416838
 H         1.460361         0.297265         2.229802
 H         4.080006         0.362344         2.233147
 H         5.008872         0.690010        -0.354335
 H         2.888406         2.458315        -0.339696
 H         3.501387         2.006205        -1.831459
 H         4.181814        -1.623927         0.089546
