19
Iteration:   234charge 0 multiplicity 1
 C         0.040018        -0.261581        -0.113642
 C         1.509728         0.099932         0.064401
 C         1.984705         0.722951         1.286849
 C         3.484192         0.404730         1.323430
 C         4.051564         0.642155        -0.120612
 C         3.095007         1.233444        -1.114525
 O         1.626395         1.032272        -0.996663
 C         3.568872        -0.768989         0.248571
 O         2.271033        -1.053418        -0.141288
 H        -0.410448        -1.123457         0.477517
 H        -0.483355         0.749122         0.082476
 H        -0.071795        -0.460368        -1.241148
 H         1.785825         1.740354         1.288924
 H         1.679123         0.158461         2.283981
 H         4.020759         0.662850         2.224399
 H         5.098919         0.792502        -0.219766
 H         3.364343         2.317343        -1.099557
 H         3.398375         0.886064        -2.083795
 H         4.251685        -1.630894         0.152723
