19
Iteration:  1760
 C         0.009718        -0.364100        -0.044075
 C         1.464927         0.144427         0.050901
 C         2.016129         0.732744         1.395616
 C         3.466978         0.266173         1.336071
 C         3.967494         0.689906        -0.112847
 C         3.152802         1.170750        -1.303401
 O         1.706713         1.144978        -0.941772
 C         3.539213        -0.727152         0.288962
 O         2.288546        -0.987346        -0.217820
 H        -0.230053        -1.351916         0.497477
 H        -0.575401         0.450188         0.410341
 H        -0.222740        -0.570609        -1.057732
 H         1.966661         1.820287         1.342699
 H         1.565792         0.362863         2.270183
 H         4.105666         0.511722         2.114577
 H         4.992669         1.012589        -0.265870
 H         3.511850         2.149781        -1.689969
 H         3.173061         0.377248        -2.097995
 H         4.185117        -1.602685         0.247595
