19
Iteration:   159charge 0 multiplicity 1
 C         0.005426        -0.231428         0.010115
 C         1.543990         0.102305         0.000524
 C         2.018004         0.849854         1.346927
 C         3.493224         0.307519         1.345011
 C         4.041177         0.603750        -0.116884
 C         3.064456         1.458453        -1.109170
 O         1.630114         0.881363        -1.130044
 C         3.535952        -0.758172         0.340928
 O         2.310536        -1.135636        -0.267096
 H        -0.247119        -1.002254         0.831431
 H        -0.606985         0.756552         0.092380
 H        -0.266339        -0.654950        -1.033799
 H         2.130686         1.860525         1.210921
 H         1.470159         0.600284         2.262041
 H         4.043340         0.190042         2.243723
 H         5.092948         0.592245        -0.204447
 H         3.024402         2.533097        -0.736442
 H         3.466536         1.386975        -2.079753
 H         4.219356        -1.563943         0.498544
