19
Iteration:  3628charge 0 multiplicity 1
 C        -0.026319        -0.282238        -0.109057
 C         1.498303         0.025167        -0.053030
 C         1.990687         0.735718         1.314149
 C         3.466840         0.340757         1.234985
 C         4.032899         0.612216        -0.079187
 C         3.196443         1.458259        -1.016912
 O         1.743126         1.060268        -1.006463
 C         3.555644        -0.754561         0.294471
 O         2.194593        -1.159820        -0.175592
 H        -0.297316        -1.185913         0.533653
 H        -0.758258         0.522438         0.190209
 H        -0.165675        -0.418486        -1.228361
 H         1.735914         1.809840         1.172107
 H         1.485779         0.479055         2.343461
 H         4.077608         0.450399         2.091608
 H         5.176625         0.644283        -0.212756
 H         3.333105         2.442947        -0.744311
 H         3.465736         1.418933        -2.091498
 H         4.173784        -1.573824         0.381271
