19
Iteration:  4332charge 0 multiplicity 1
 C         0.096285        -0.320273        -0.166544
 C         1.470955         0.101733         0.014954
 C         1.974227         0.721543         1.378284
 C         3.437534         0.392873         1.333802
 C         3.999220         0.556568        -0.076580
 C         3.117919         1.250735        -1.111821
 O         1.707472         1.167372        -0.896189
 C         3.511919        -0.752547         0.255934
 O         2.315041        -1.069491        -0.303358
 H         0.001405        -1.276393         0.423134
 H        -0.669917         0.338184         0.373285
 H        -0.222394        -0.366748        -1.221972
 H         1.687045         1.767871         1.267219
 H         1.487147         0.291972         2.304513
 H         4.067028         0.468294         2.167557
 H         5.065994         0.872548        -0.182122
 H         3.468229         2.370069        -1.107554
 H         3.114125         0.809208        -2.126107
 H         4.150978        -1.618527         0.307328
