19
Iteration:  2568
 C         0.076411        -0.425155        -0.093969
 C         1.410420         0.213667         0.024293
 C         1.931838         0.636495         1.494283
 C         3.384262         0.394540         1.267459
 C         4.082239         0.562962        -0.091071
 C         3.192105         1.132714        -1.322990
 O         1.766476         1.230009        -0.848434
 C         3.542104        -0.751009         0.260338
 O         2.202167        -0.899714        -0.245869
 H         0.247633        -1.509073         0.327504
 H        -0.765917         0.152003         0.316158
 H        -0.153677        -0.513911        -1.130890
 H         1.811623         1.678412         1.794996
 H         1.407138        -0.124432         2.087188
 H         4.133337         0.507638         1.982330
 H         5.073029         0.894816        -0.092519
 H         3.542134         2.153229        -1.609244
 H         3.464786         0.639395        -2.387414
 H         4.109774        -1.689415         0.315347
