19
Iteration:  2308charge 0 multiplicity 1
 C        -0.080240        -0.263796        -0.056081
 C         1.412480        -0.002978         0.026127
 C         1.946096         0.695341         1.275127
 C         3.532321         0.451272         1.204411
 C         4.104815         0.588341        -0.231471
 C         3.202829         1.497907        -1.108241
 O         1.773879         0.983902        -1.015458
 C         3.517112        -0.781000         0.310864
 O         2.208473        -1.136038        -0.081723
 H        -0.207039        -1.276874         0.443939
 H        -0.480482         0.522213         0.620191
 H        -0.493780        -0.096121        -1.015063
 H         1.596387         1.742810         1.414107
 H         1.673281         0.114264         2.228698
 H         4.318189         0.695408         2.020220
 H         5.205753         0.615921        -0.395339
 H         3.369869         2.493682        -0.678582
 H         3.408491         1.655326        -2.251114
 H         4.070528        -1.635301         0.663474
