19
Iteration:  1892charge 0 multiplicity 1
 C         0.048444        -0.224830         0.148198
 C         1.527130         0.069934        -0.031285
 C         1.955289         0.767823         1.198521
 C         3.407704         0.380367         1.247220
 C         4.066212         0.533604        -0.230603
 C         3.096392         1.473101        -1.015881
 O         1.821592         0.937523        -1.092284
 C         3.495978        -0.781125         0.246045
 O         2.203219        -1.172689        -0.158134
 H        -0.061464        -1.057316         0.909976
 H        -0.480740         0.576395         0.603320
 H        -0.490624        -0.496421        -0.870871
 H         1.825291         1.894293         1.227383
 H         1.406739         0.454189         2.025612
 H         4.070543         0.730013         2.124977
 H         5.061124         0.981816        -0.085153
 H         3.178980         2.475391        -0.501048
 H         3.472084         1.722108        -2.011512
 H         4.261263        -1.533802         0.374362
