19
Iteration:  3459charge 0 multiplicity 1
 C        -0.007999        -0.105990        -0.037223
 C         1.469385         0.048659        -0.061777
 C         1.964179         0.674583         1.311985
 C         3.444110         0.316727         1.291161
 C         4.021566         0.666624        -0.107516
 C         3.067667         1.501768        -0.920262
 O         1.824576         0.883389        -1.175948
 C         3.582954        -0.816971         0.262290
 O         2.280553        -1.168008        -0.171460
 H        -0.418588        -0.985184         0.559846
 H        -0.368217         0.797169         0.437506
 H        -0.360869        -0.154956        -1.023473
 H         1.826959         1.815589         1.151019
 H         1.397093         0.350074         2.217700
 H         4.154518         0.301650         2.098273
 H         4.918928         1.099930        -0.327796
 H         2.964063         2.375697        -0.296901
 H         3.274475         1.808903        -1.916817
 H         4.238719        -1.669939         0.334729
