19
Iteration:  4205
 C         0.054102        -0.353709        -0.183372
 C         1.439257         0.181351         0.084610
 C         1.924253         0.615462         1.445304
 C         3.426123         0.357048         1.308270
 C         3.966523         0.598796        -0.120096
 C         3.208450         1.361896        -1.183972
 O         1.781885         1.186367        -1.053957
 C         3.555504        -0.757217         0.283262
 O         2.233111        -1.093280        -0.140279
 H        -0.233076        -1.044643         0.555849
 H        -0.644135         0.492652        -0.195394
 H        -0.011696        -0.942496        -1.065361
 H         1.722002         1.581547         1.802889
 H         1.533679        -0.101080         2.191667
 H         4.192798         0.466554         2.067362
 H         4.990808         0.723350        -0.174019
 H         3.315447         2.486814        -1.196845
 H         3.516077         1.024242        -2.168565
 H         4.290408        -1.585843         0.232199
