19
Iteration:  1098charge 0 multiplicity 1
 C        -0.083023        -0.161005        -0.072283
 C         1.436010         0.000484         0.026520
 C         2.036710         0.747015         1.311626
 C         3.462088         0.440950         1.269296
 C         4.143369         0.590931        -0.167933
 C         3.071333         1.320027        -1.067285
 O         1.693527         0.976768        -1.008475
 C         3.595358        -0.735021         0.304767
 O         2.319179        -1.153632        -0.190243
 H        -0.440545        -0.874749         0.598638
 H        -0.596957         0.747414         0.159096
 H        -0.405644        -0.383906        -1.107870
 H         1.819901         1.897402         1.284608
 H         1.598571         0.385619         2.344354
 H         3.988558         0.077693         2.156304
 H         5.063134         1.118700        -0.488189
 H         2.993692         2.479014        -0.956543
 H         3.440715         1.132376        -2.046697
 H         4.203008        -1.573734         0.526324
