19
Iteration:   768
 C        -0.018304        -0.216870        -0.006676
 C         1.486917         0.122730         0.012706
 C         1.973267         0.674770         1.412546
 C         3.482841         0.420246         1.306368
 C         3.997150         0.604008        -0.160043
 C         3.144256         1.234269        -1.218446
 O         1.728561         1.011546        -1.038350
 C         3.563457        -0.738361         0.322703
 O         2.280028        -1.050505        -0.186728
 H        -0.146470        -0.975934         0.738681
 H        -0.629473         0.702336         0.270930
 H        -0.286127        -0.499213        -1.009952
 H         1.663049         1.715422         1.487428
 H         1.369265         0.170559         2.161441
 H         4.125359         0.533349         2.184353
 H         5.026746         0.711354        -0.400954
 H         3.188468         2.336211        -1.281959
 H         3.543330         0.905053        -2.247953
 H         4.260033        -1.559856         0.218464
