19
Iteration:  1348
 C        -0.095122        -0.220864        -0.079779
 C         1.411261         0.029471         0.004170
 C         1.979323         0.625920         1.349381
 C         3.546775         0.488831         1.310594
 C         4.092429         0.651011        -0.104720
 C         3.084590         1.190325        -1.152409
 O         1.676626         1.132218        -0.884667
 C         3.623336        -0.757219         0.294622
 O         2.340242        -1.105363        -0.245715
 H        -0.704262        -0.846933         0.553536
 H        -0.673248         0.813366        -0.140380
 H        -0.240741        -0.624338        -1.096978
 H         1.751423         1.739439         1.294193
 H         1.618464         0.077448         2.151449
 H         4.037378         0.719300         2.240557
 H         5.070662         0.805043        -0.481732
 H         3.193543         2.288758        -1.473373
 H         3.263674         0.559502        -2.116605
 H         4.510868        -1.425016         0.250294
