19
Iteration:   712charge 0 multiplicity 1
 C         0.015471        -0.283548        -0.053363
 C         1.503816         0.096815         0.089274
 C         1.936214         0.661718         1.390589
 C         3.412358         0.591820         1.154941
 C         4.041562         0.532475        -0.211997
 C         3.154847         1.149029        -1.217059
 O         1.729371         1.191650        -0.883896
 C         3.553386        -0.798468         0.337563
 O         2.281623        -1.089732        -0.218777
 H        -0.265370        -1.131805         0.489879
 H        -0.577182         0.620097         0.208218
 H        -0.079214        -0.532554        -1.128430
 H         1.572140         1.725107         1.563514
 H         1.573642         0.005965         2.160076
 H         4.084909         0.829492         1.970268
 H         5.120103         0.812975        -0.135646
 H         3.298345         2.220404        -1.360410
 H         3.249774         0.612596        -2.243272
 H         4.241020        -1.560437         0.788784
