19
Iteration:  3497charge 0 multiplicity 1
 C        -0.032941        -0.344028        -0.094391
 C         1.432176         0.130039         0.012599
 C         1.920231         0.705433         1.340611
 C         3.549970         0.299518         1.238774
 C         3.987336         0.638937        -0.111175
 C         3.170274         1.471774        -1.033517
 O         1.813764         1.044926        -1.110334
 C         3.561747        -0.790801         0.265420
 O         2.197048        -1.099987        -0.143324
 H        -0.159777        -1.015542         0.725727
 H        -0.718384         0.538187         0.013352
 H        -0.359219        -0.870446        -1.070693
 H         1.859315         1.768249         1.348720
 H         1.399989         0.254730         2.236038
 H         4.132120         0.232849         2.170300
 H         5.162146         0.653874        -0.114839
 H         3.255510         2.626787        -0.542741
 H         3.769534         1.624322        -2.013108
 H         4.223753        -1.638239         0.427153
