19
Iteration:   483
 C         0.050902        -0.284549        -0.091667
 C         1.459481         0.132629         0.108471
 C         2.032808         0.731518         1.368047
 C         3.433989         0.325550         1.295973
 C         4.004980         0.755622        -0.123911
 C         3.101560         1.211302        -1.237869
 O         1.721139         1.075086        -0.968760
 C         3.557123        -0.788387         0.364561
 O         2.264470        -1.074781        -0.270866
 H        -0.435393        -0.879444         0.739327
 H        -0.632519         0.539290        -0.261174
 H        -0.036337        -0.988943        -0.952973
 H         1.918720         1.812531         1.475653
 H         1.667657         0.340012         2.289871
 H         4.167159         0.476787         2.097765
 H         5.083644         0.955614        -0.132976
 H         3.179969         2.294273        -1.401448
 H         3.277040         0.746580        -2.145532
 H         4.154843        -1.676836         0.470740
