19
Iteration:  4510
 C        -0.031401        -0.121095        -0.151815
 C         1.480623         0.088455         0.111371
 C         1.967754         0.544359         1.472765
 C         3.481701         0.292839         1.333219
 C         3.927212         0.688173        -0.062536
 C         3.110080         1.389278        -1.180311
 O         1.764939         0.951938        -1.056282
 C         3.598871        -0.739582         0.151058
 O         2.295407        -1.042166        -0.203594
 H        -0.326607        -1.120538         0.349848
 H        -0.586635         0.682167         0.293900
 H        -0.070407        -0.254091        -1.235425
 H         1.659575         1.577515         1.515256
 H         1.527228        -0.080804         2.286787
 H         4.206844         0.669560         2.120978
 H         4.931995         0.857402         0.002221
 H         3.121612         2.483818        -1.024002
 H         3.609906         1.027631        -2.057872
 H         4.348103        -1.485674         0.366406
