19
Iteration:  4133
 C        -0.014294        -0.283969        -0.125691
 C         1.456768         0.150380        -0.024534
 C         1.931009         0.497572         1.424677
 C         3.445820         0.392137         1.236509
 C         4.049346         0.698872        -0.069675
 C         3.224758         1.222370        -1.249763
 O         1.749532         1.217046        -0.980284
 C         3.588839        -0.734198         0.361792
 O         2.230359        -1.026417        -0.149787
 H        -0.282054        -1.263462         0.248729
 H        -0.671499         0.546034         0.146179
 H        -0.224488        -0.542269        -1.228697
 H         1.494329         1.439780         1.876832
 H         1.643135        -0.355461         2.043023
 H         3.952730         0.422213         2.186834
 H         5.074711         0.905797        -0.068517
 H         3.426829         2.224783        -1.544557
 H         3.422264         0.543089        -2.122068
 H         4.106243        -1.647251         0.455010
