19
Iteration:   340
 C        -0.026454        -0.242969        -0.188956
 C         1.482571         0.110224         0.039206
 C         2.007372         0.717908         1.380485
 C         3.513214         0.376159         1.228076
 C         4.010306         0.656696        -0.193906
 C         3.131681         1.394385        -1.153043
 O         1.776732         0.966139        -0.998098
 C         3.527212        -0.675490         0.308334
 O         2.213475        -1.179550        -0.046806
 H        -0.470094        -1.016413         0.475605
 H        -0.677275         0.571728        -0.062089
 H        -0.197425        -0.556604        -1.186447
 H         1.867374         1.784389         1.655421
 H         1.762950         0.140823         2.256593
 H         4.201235         0.277384         2.067284
 H         5.087345         0.791088        -0.226251
 H         3.116692         2.500554        -1.106360
 H         3.270186         1.001919        -2.158074
 H         4.250552        -1.500089         0.511475
