19
Iteration:   578
 C        -0.080286        -0.227391        -0.214219
 C         1.445821         0.063033         0.026888
 C         2.133851         0.786237         1.454867
 C         3.558912         0.341457         1.265571
 C         3.984171         0.652862        -0.149181
 C         3.035663         1.351815        -1.111749
 O         1.718553         0.917915        -1.113330
 C         3.618300        -0.789673         0.250195
 O         2.245455        -1.091218        -0.015532
 H        -0.544928        -1.056943         0.380426
 H        -0.525318         0.613027         0.230428
 H        -0.480475        -0.354731        -1.188328
 H         1.927300         1.944015         1.500305
 H         1.567975         0.352331         2.290338
 H         4.277906         0.517050         2.075826
 H         4.920906         1.177320        -0.214575
 H         3.085768         2.444437        -0.916506
 H         3.473660         1.203731        -2.228888
 H         4.322466        -1.592533         0.413282
