19
Iteration:  1286charge 0 multiplicity 1
 C        -0.069411        -0.347566        -0.023574
 C         1.439038         0.130190        -0.076247
 C         2.049779         0.739559         1.309962
 C         3.549449         0.372701         1.216837
 C         4.074573         0.666889        -0.116709
 C         3.116747         1.456701        -1.033554
 O         1.770754         0.968360        -1.110413
 C         3.527723        -0.791264         0.279427
 O         2.181626        -1.112395        -0.089308
 H        -0.218886        -1.042930         0.783817
 H        -0.600830         0.625723         0.046072
 H        -0.307146        -0.751748        -0.962046
 H         1.819236         1.759376         1.528369
 H         1.697117         0.266292         2.318958
 H         4.182910         0.286005         2.096035
 H         5.117292         0.873202        -0.346155
 H         2.890462         2.533376        -0.815842
 H         3.679036         1.399813        -1.981732
 H         4.052338        -1.748325         0.397187
