19
Iteration:  3982charge 0 multiplicity 1
 C         0.063038        -0.408279        -0.117990
 C         1.469214         0.182999         0.023208
 C         1.935274         0.618057         1.487509
 C         3.372817         0.416617         1.291688
 C         3.984982         0.591449        -0.116163
 C         3.200224         1.198508        -1.211104
 O         1.844558         1.185693        -0.886542
 C         3.474574        -0.762717         0.256774
 O         2.256682        -0.928566        -0.302015
 H         0.126085        -1.277748         0.464527
 H        -0.868162         0.157558         0.155429
 H        -0.128809        -0.623593        -1.268128
 H         1.727751         1.708891         1.802065
 H         1.345623         0.018792         2.180409
 H         4.027047         0.469315         2.155757
 H         5.035364         0.740762        -0.239934
 H         3.554182         2.304719        -1.286639
 H         3.225145         0.626455        -2.152804
 H         4.141964        -1.638034         0.388266
