19
Iteration:  4956
 C        -0.087981        -0.277385        -0.076990
 C         1.476323         0.123945        -0.005572
 C         1.910853         0.464012         1.431964
 C         3.412223         0.468857         1.245430
 C         4.054531         0.661313        -0.106874
 C         3.195812         1.211822        -1.198420
 O         1.774933         1.231262        -0.806442
 C         3.580514        -0.748078         0.247804
 O         2.304356        -1.048247        -0.325992
 H        -0.386542        -0.874568         0.857513
 H        -0.620506         0.698684        -0.061994
 H        -0.239446        -0.889664        -0.887214
 H         1.631676         1.459875         1.588436
 H         1.535297        -0.279396         2.208391
 H         4.011514         0.584493         2.168572
 H         5.210852         0.891789        -0.367291
 H         3.476877         2.188162        -1.379204
 H         3.278679         0.734827        -2.158057
 H         4.133904        -1.659220         0.251482
