19
Iteration:  4707charge 0 multiplicity 1
 C        -0.090812        -0.329113        -0.018538
 C         1.473772         0.082917        -0.069623
 C         1.981150         0.632542         1.328966
 C         3.408279         0.352032         1.246319
 C         4.043078         0.619815        -0.174080
 C         3.186826         1.437020        -1.017928
 O         1.793725         1.101060        -0.968950
 C         3.563875        -0.772120         0.252856
 O         2.264321        -1.105624        -0.224212
 H        -0.212347        -1.166324         0.846546
 H        -0.608409         0.664645         0.221004
 H        -0.462989        -0.500243        -1.007668
 H         1.745719         1.741589         1.440469
 H         1.422663         0.204841         2.190021
 H         3.951954         0.506740         2.145242
 H         5.216961         0.770954        -0.384998
 H         3.411490         2.469707        -0.810536
 H         3.468064         1.381141        -2.133743
 H         4.151689        -1.653849         0.551568
