19
Iteration:  3431
 C        -0.009465        -0.183935        -0.104978
 C         1.427584         0.133109         0.046157
 C         1.978080         0.574981         1.390470
 C         3.495404         0.374053         1.301227
 C         3.998455         0.713462        -0.030232
 C         3.172346         1.472182        -1.087252
 O         1.814318         0.915089        -1.122880
 C         3.520267        -0.758959         0.194626
 O         2.215389        -1.127213        -0.115312
 H        -0.376834        -1.078980         0.363125
 H        -0.613034         0.701193         0.241240
 H        -0.166292        -0.274916        -1.224145
 H         1.667638         1.540822         1.636717
 H         1.631518        -0.224478         2.078804
 H         4.192253         0.257180         2.132267
 H         5.052457         0.800751        -0.467875
 H         3.226924         2.567307        -0.833603
 H         3.438221         1.427122        -2.185212
 H         4.285173        -1.598416         0.100436
