19
Iteration:  3276
 C         0.013992        -0.308763        -0.086903
 C         1.458772         0.185374        -0.027721
 C         2.067762         0.713018         1.277949
 C         3.498270         0.295956         1.294159
 C         4.067445         0.669414        -0.078266
 C         3.085835         1.526657        -0.956489
 O         1.807150         0.938988        -1.163868
 C         3.472181        -0.798756         0.229241
 O         2.131700        -1.107710        -0.113033
 H         0.052656        -1.394874         0.401825
 H        -0.802249         0.258715         0.431351
 H        -0.127323        -0.570103        -1.144430
 H         2.157681         1.780528         1.543968
 H         1.526823         0.223817         2.140336
 H         4.111037         0.222324         2.251632
 H         5.051146         0.775987        -0.429711
 H         3.092798         2.434839        -0.454074
 H         3.513424         1.780106        -1.942275
 H         4.232023        -1.582305         0.349248
