19
Iteration:  4687charge 0 multiplicity 1
 C         0.066982        -0.338772        -0.051894
 C         1.430460         0.133124         0.031154
 C         2.016551         0.733634         1.371777
 C         3.475698         0.360016         1.246681
 C         4.030581         0.582959        -0.073030
 C         3.142817         1.549033        -0.985067
 O         1.787720         0.949051        -1.095379
 C         3.486443        -0.796517         0.195828
 O         2.173134        -1.111756        -0.215372
 H         0.086344        -1.324621         0.599392
 H        -0.605016         0.528940         0.275571
 H        -0.231752        -0.432464        -1.138588
 H         1.727426         1.901092         1.255997
 H         1.521174         0.493185         2.319343
 H         4.084063         0.157575         2.101773
 H         5.234593         0.663450        -0.131989
 H         3.203980         2.557996        -0.457007
 H         3.478439         1.625389        -2.067964
 H         4.134951        -1.628914        -0.066067
