19
Iteration:   766charge 0 multiplicity 1
 C        -0.024615        -0.214804         0.002859
 C         1.496567         0.128048         0.019747
 C         1.971210         0.671388         1.392762
 C         3.489587         0.415552         1.307343
 C         3.989548         0.624120        -0.148231
 C         3.155788         1.213691        -1.206614
 O         1.719718         1.021272        -1.051169
 C         3.553069        -0.752027         0.310115
 O         2.279910        -1.046258        -0.183105
 H        -0.117361        -0.974796         0.691567
 H        -0.645904         0.650299         0.269145
 H        -0.245226        -0.508169        -1.017092
 H         1.637091         1.810509         1.535874
 H         1.418402         0.140491         2.242905
 H         4.087054         0.504255         2.208325
 H         5.051096         0.754248        -0.429469
 H         3.186548         2.285845        -1.319249
 H         3.537228         0.874133        -2.222520
 H         4.328792        -1.542675         0.201805
