19
Iteration:  2118
 C         0.014216        -0.215113        -0.016923
 C         1.449360         0.074567         0.089704
 C         2.020587         0.734252         1.399543
 C         3.453821         0.386943         1.236490
 C         4.057801         0.678920        -0.187726
 C         3.118555         1.345277        -1.174282
 O         1.737292         0.963417        -1.040636
 C         3.540339        -0.744908         0.223572
 O         2.226521        -1.126783        -0.130410
 H        -0.068445        -1.189304         0.470878
 H        -0.699762         0.502163         0.300046
 H        -0.278729        -0.309023        -1.124178
 H         1.791678         1.831909         1.482402
 H         1.590590         0.267285         2.348618
 H         4.071441         0.426442         2.170841
 H         5.129205         0.679797        -0.255163
 H         3.392346         2.410425        -1.023063
 H         3.448332         1.125949        -2.246544
 H         4.149264        -1.628006         0.316046
