19
Iteration:  1955
 C         0.000784        -0.285201        -0.146456
 C         1.477486         0.104516         0.132320
 C         1.986267         0.578799         1.507485
 C         3.455180         0.442298         1.213855
 C         3.994503         0.601291        -0.229482
 C         3.086273         1.232148        -1.302874
 O         1.801476         1.231960        -0.909289
 C         3.577304        -0.712892         0.275951
 O         2.257593        -1.103919        -0.119307
 H        -0.380975        -1.091658         0.542898
 H        -0.571866         0.619787        -0.158986
 H        -0.065339        -0.573054        -1.219085
 H         1.597099         1.625835         1.632475
 H         1.641038        -0.090213         2.369849
 H         4.156127         0.584217         2.032492
 H         5.057149         0.708185        -0.218030
 H         3.365340         2.264512        -1.657418
 H         2.989485         0.613417        -2.230800
 H         4.141941        -1.606350         0.510224
