19
Iteration:  4993charge 0 multiplicity 1
 C         0.036257        -0.196444        -0.236728
 C         1.406259         0.176240         0.076922
 C         1.982743         0.431362         1.473929
 C         3.539517         0.345153         1.342973
 C         3.980867         0.663526        -0.099252
 C         3.061653         1.227407        -1.219682
 O         1.699655         1.176311        -0.876594
 C         3.612264        -0.714285         0.218818
 O         2.310364        -1.057482        -0.242512
 H        -0.377566        -0.812118         0.472818
 H        -0.546112         0.716419        -0.172859
 H        -0.246243        -0.482388        -1.348031
 H         1.751115         1.605873         1.742185
 H         1.507616        -0.094909         2.278672
 H         4.172517         0.549189         2.189425
 H         4.986724         0.765342        -0.240023
 H         3.310510         2.323457        -1.509203
 H         3.288368         0.480732        -1.998603
 H         4.364004        -1.517031         0.360671
