19
Iteration:  1876charge 0 multiplicity 1
 C        -0.026375        -0.287627         0.068697
 C         1.423769         0.118052         0.001870
 C         2.049246         0.793918         1.288617
 C         3.525329         0.416401         1.207258
 C         4.008702         0.610252        -0.179359
 C         3.133137         1.491866        -0.931590
 O         1.802896         0.879696        -1.214258
 C         3.524088        -0.814420         0.284675
 O         2.208958        -1.090372        -0.152451
 H        -0.196276        -1.084312         0.833750
 H        -0.677583         0.594100         0.385060
 H        -0.350292        -0.733474        -0.814739
 H         1.806329         1.833443         1.146747
 H         1.684289         0.395716         2.326530
 H         4.203545         0.303033         2.016142
 H         5.043713         0.356119        -0.415185
 H         2.936982         2.419590        -0.349562
 H         3.399520         1.717458        -1.981904
 H         4.113084        -1.749353         0.375641
