19
Iteration:  1605
 C         0.039546        -0.266231        -0.179721
 C         1.421324         0.147314         0.111620
 C         2.020177         0.683780         1.508486
 C         3.431279         0.410530         1.288921
 C         3.981431         0.644996        -0.083507
 C         3.063766         1.141508        -1.294721
 O         1.749602         1.036721        -0.880921
 C         3.591856        -0.708397         0.241451
 O         2.322546        -1.013316        -0.230895
 H        -0.279749        -0.985765         0.529419
 H        -0.642579         0.644421        -0.114862
 H        -0.157549        -0.467963        -1.228328
 H         1.813214         1.722006         1.452094
 H         1.616563         0.254774         2.427989
 H         4.230580         0.362371         2.073586
 H         4.958885         0.982263        -0.369621
 H         3.152673         2.187252        -1.575973
 H         3.102018         0.493333        -2.214251
 H         4.266964        -1.579799         0.255691
