19
Iteration:  2057
 C        -0.064626        -0.129633         0.008745
 C         1.475784        -0.019584         0.020913
 C         1.959358         0.752950         1.316989
 C         3.489661         0.458014         1.148446
 C         4.004065         0.521364        -0.241882
 C         3.140408         1.493714        -0.994901
 O         1.800196         0.871370        -1.029135
 C         3.545379        -0.746484         0.290792
 O         2.299575        -1.176851        -0.160025
 H        -0.348379        -0.880331         0.713418
 H        -0.474605         0.855779         0.439203
 H        -0.413973        -0.482413        -0.983683
 H         1.732830         1.851926         1.337204
 H         1.570455         0.339569         2.211625
 H         4.049726         0.806072         1.972269
 H         5.123500         0.656140        -0.275153
 H         2.934642         2.598806        -0.666365
 H         3.347770         1.540009        -2.078659
 H         4.092832        -1.750995         0.311060
