19
Iteration:  4525
 C         0.027152        -0.176660        -0.198563
 C         1.474938         0.106937         0.007767
 C         1.974002         0.484820         1.511542
 C         3.450519         0.388036         1.278250
 C         3.970126         0.701716        -0.119680
 C         3.142233         1.297610        -1.179746
 O         1.731744         1.099372        -0.982144
 C         3.620491        -0.720721         0.280261
 O         2.258540        -1.096822        -0.149332
 H        -0.316320        -1.063798         0.310404
 H        -0.569769         0.708794         0.089555
 H        -0.235964        -0.315914        -1.227660
 H         1.631075         1.476026         1.969186
 H         1.613605        -0.279595         2.149138
 H         4.112288         0.279431         2.071834
 H         5.069336         1.135944        -0.321922
 H         3.282960         2.400652        -1.285215
 H         3.295261         0.909780        -2.219336
 H         4.166247        -1.643888         0.163129
