19
Iteration:  3803
 C        -0.020453        -0.142462        -0.143356
 C         1.442555         0.129946         0.054042
 C         1.901662         0.484515         1.437451
 C         3.401562         0.434223         1.251741
 C         4.032797         0.659040        -0.108329
 C         3.211023         1.317726        -1.191720
 O         1.745188         1.035711        -0.947521
 C         3.574806        -0.741999         0.279928
 O         2.323337        -1.073560        -0.188171
 H        -0.453417        -1.120552         0.316240
 H        -0.515324         0.821616         0.011647
 H        -0.102600        -0.257175        -1.190351
 H         1.605913         1.493305         1.669269
 H         1.513981        -0.297166         2.146638
 H         4.109622         0.531941         2.059743
 H         5.090968         0.738544        -0.178039
 H         2.990914         2.428264        -1.287198
 H         3.583586         0.750337        -2.033079
 H         4.359543        -1.546444         0.252032
