19
Iteration:  4591charge 0 multiplicity 1
 C         0.006570        -0.348018        -0.084011
 C         1.474119         0.174195        -0.010659
 C         2.009773         0.552287         1.394592
 C         3.511298         0.316441         1.344755
 C         3.988900         0.650338        -0.036327
 C         3.108434         1.236052        -1.142577
 O         1.712740         1.221675        -0.988157
 C         3.569050        -0.758654         0.281973
 O         2.240139        -0.968400        -0.278560
 H        -0.205207        -0.915198         0.772873
 H        -0.749205         0.428997        -0.315430
 H        -0.079147        -0.926881        -1.034937
 H         1.801808         1.638514         1.621899
 H         1.449412         0.047762         2.127421
 H         4.034684        -0.017623         2.225686
 H         5.079173         1.099784        -0.219301
 H         3.411044         2.244837        -1.465292
 H         3.513497         0.691885        -2.020114
 H         4.282958        -1.577058         0.152150
