19
Iteration:  4702charge 0 multiplicity 1
 C        -0.067069        -0.308340         0.001955
 C         1.473821         0.069492         0.009238
 C         1.960076         0.706184         1.305656
 C         3.433140         0.349055         1.255524
 C         4.041678         0.618786        -0.171578
 C         3.204327         1.440501        -0.990524
 O         1.809439         1.080417        -1.000810
 C         3.537412        -0.774224         0.208205
 O         2.236556        -1.136036        -0.246971
 H        -0.181466        -1.097789         0.613483
 H        -0.775348         0.424049         0.343262
 H        -0.269170        -0.637217        -1.065595
 H         1.727363         1.739275         1.370425
 H         1.482569         0.182941         2.154617
 H         4.058627         0.524112         2.171105
 H         5.024529         0.727211        -0.281448
 H         3.265311         2.554459        -0.734633
 H         3.561010         1.478571        -1.992904
 H         4.177500        -1.599795         0.506458
