19
Iteration:  2011
 C         0.002101        -0.294383        -0.064958
 C         1.440791         0.213798         0.089707
 C         2.032746         0.589252         1.538048
 C         3.490975         0.343248         1.262446
 C         3.986216         0.706560        -0.080691
 C         3.169723         1.186631        -1.316921
 O         1.711606         1.056052        -1.013465
 C         3.566012        -0.740765         0.270674
 O         2.246288        -0.955549        -0.229166
 H        -0.395371        -0.607440         0.886936
 H        -0.498249         0.633784        -0.204306
 H        -0.113605        -1.094697        -0.899492
 H         1.633314         1.660360         1.701691
 H         1.583368        -0.073082         2.323642
 H         4.097965         0.539368         2.204299
 H         5.048440         0.682889        -0.188735
 H         3.512739         2.263163        -1.529564
 H         3.203491         0.581458        -2.326750
 H         4.143979        -1.610941         0.084047
