19
Iteration:  4165charge 0 multiplicity 1
 C        -0.010853        -0.206290        -0.177894
 C         1.502869         0.018965         0.039431
 C         1.877737         0.599031         1.527409
 C         3.345378         0.463666         1.218241
 C         3.980650         0.695163        -0.090158
 C         3.130729         1.085641        -1.256757
 O         1.788572         1.191569        -0.781012
 C         3.622056        -0.744556         0.363220
 O         2.368110        -1.071534        -0.382394
 H        -0.572090        -0.965950         0.321750
 H        -0.520916         0.704808         0.074775
 H         0.031085        -0.183854        -1.321814
 H         1.423945         1.614456         1.441114
 H         1.492448         0.043514         2.337787
 H         3.932660         0.617394         2.121726
 H         4.984827         0.959871        -0.076878
 H         3.591186         2.083850        -1.555894
 H         3.169144         0.371481        -2.093440
 H         4.388219        -1.475870         0.436574
