19
Iteration:  1632charge 0 multiplicity 1
 C        -0.008323        -0.359769        -0.025834
 C         1.416733         0.131679         0.071925
 C         1.973454         0.624953         1.358106
 C         3.537594         0.454984         1.260934
 C         4.055334         0.590624        -0.136905
 C         3.179724         1.381383        -1.218136
 O         1.744645         1.123764        -1.058690
 C         3.543733        -0.749957         0.305045
 O         2.197757        -1.112095        -0.121133
 H        -0.324548        -0.974285         0.862342
 H        -0.654536         0.493745        -0.067181
 H        -0.088208        -0.868438        -1.014911
 H         1.712950         1.737518         1.503912
 H         1.474208         0.050217         2.165293
 H         4.275961         0.466620         2.012529
 H         5.092552         0.718949        -0.437496
 H         3.308920         2.483131        -1.129720
 H         3.380315         1.072055        -2.281029
 H         4.168970        -1.623387         0.432118
