19
Iteration:  1929charge 0 multiplicity 1
 C        -0.076388        -0.211876        -0.036346
 C         1.447196         0.109395         0.038249
 C         2.077827         0.637889         1.427845
 C         3.540522         0.401738         1.292063
 C         4.009363         0.657087        -0.119837
 C         3.119887         1.255222        -1.168980
 O         1.733452         0.965819        -1.066727
 C         3.604920        -0.691567         0.287747
 O         2.209819        -1.040922        -0.188479
 H        -0.333770        -1.129796         0.466877
 H        -0.629169         0.747443         0.223329
 H        -0.263211        -0.255871        -1.078552
 H         1.714118         1.635668         1.571131
 H         1.567445        -0.053743         2.162502
 H         4.301461         0.556949         2.043359
 H         5.099436         0.910929        -0.065836
 H         3.183357         2.329932        -1.210987
 H         3.276509         0.845642        -2.250963
 H         4.117782        -1.654516         0.123185
