19
Iteration:  3107charge 0 multiplicity 1
 C        -0.018337        -0.138037        -0.103870
 C         1.420325         0.089289        -0.048041
 C         1.975381         0.569845         1.447925
 C         3.442538         0.357395         1.290171
 C         3.992459         0.699035        -0.104260
 C         3.151937         1.375528        -1.094868
 O         1.784245         0.985236        -1.061986
 C         3.585811        -0.726926         0.228750
 O         2.309144        -1.110248        -0.154235
 H        -0.409784        -1.047632         0.379163
 H        -0.661181         0.656405         0.309630
 H        -0.408276        -0.406133        -1.161358
 H         1.510965         1.534791         1.850112
 H         1.663095        -0.206776         2.228192
 H         4.082822         0.570615         2.171874
 H         5.145839         0.890199        -0.209237
 H         3.277825         2.435591        -0.951637
 H         3.360300         1.153579        -2.200313
 H         4.153503        -1.668940         0.199190
