19
Iteration:  4442
 C         0.035871        -0.361986        -0.095918
 C         1.452152         0.156505         0.004057
 C         2.042115         0.729345         1.355789
 C         3.484272         0.340158         1.290154
 C         4.029724         0.617012        -0.111525
 C         3.094935         1.532276        -0.943283
 O         1.801421         0.941694        -1.115978
 C         3.522163        -0.754106         0.173460
 O         2.152018        -1.076737        -0.187260
 H        -0.169006        -0.903817         0.790747
 H        -0.724101         0.476613        -0.031059
 H         0.003624        -0.981739        -1.059589
 H         1.987826         1.769680         1.384671
 H         1.511768         0.250907         2.243469
 H         4.185247         0.085142         2.096662
 H         5.039502         0.654073        -0.258868
 H         3.186322         2.509323        -0.446608
 H         3.510941         1.452072        -1.938491
 H         4.080363        -1.635440         0.537582
