19
Iteration:  3150charge 0 multiplicity 1
 C        -0.041725        -0.391166        -0.202066
 C         1.473876         0.145997         0.039712
 C         1.904346         0.651369         1.377470
 C         3.465825         0.383674         1.279012
 C         4.035238         0.594106        -0.142014
 C         3.119671         1.231362        -1.172679
 O         1.754826         1.245770        -0.780440
 C         3.631820        -0.756523         0.281513
 O         2.281120        -1.034117        -0.289210
 H        -0.317585        -1.118742         0.548001
 H        -0.730963         0.451300         0.019415
 H        -0.248688        -0.752671        -1.262132
 H         1.773651         1.762087         1.528514
 H         1.490453         0.018343         2.206766
 H         4.124124         0.704584         2.119565
 H         5.197063         0.709226        -0.003155
 H         3.313704         2.240365        -1.362511
 H         3.300005         0.581206        -2.050100
 H         4.261188        -1.651088         0.389988
