19
Iteration:  3148
 C        -0.038609        -0.391056        -0.209977
 C         1.469866         0.138123         0.042071
 C         1.912549         0.658433         1.398934
 C         3.449215         0.366092         1.271139
 C         4.051579         0.591019        -0.122309
 C         3.107304         1.232791        -1.177509
 O         1.756668         1.245377        -0.805623
 C         3.613615        -0.744763         0.265645
 O         2.276528        -1.035219        -0.271730
 H        -0.257962        -1.125571         0.557566
 H        -0.628290         0.455046         0.006537
 H        -0.190207        -0.656584        -1.195857
 H         1.766767         1.676866         1.539361
 H         1.500355        -0.016124         2.185529
 H         4.174554         0.687888         2.086815
 H         5.210051         0.739370        -0.031781
 H         3.308843         2.291676        -1.382040
 H         3.276361         0.613882        -2.031471
 H         4.326529        -1.600642         0.438005
