19
Iteration:  1484
 C        -0.028798        -0.234318         0.031856
 C         1.418888         0.093085         0.008978
 C         1.991566         0.732097         1.324929
 C         3.512300         0.442304         1.185607
 C         4.019313         0.587654        -0.248509
 C         3.104108         1.518885        -0.945666
 O         1.889745         0.830399        -1.150551
 C         3.507768        -0.700714         0.252776
 O         2.186266        -1.175907        -0.109635
 H        -0.138395        -0.770320         0.988078
 H        -0.567584         0.683426        -0.024780
 H        -0.299664        -0.914249        -0.832453
 H         1.665531         1.716166         1.527892
 H         1.601524         0.017757         2.113822
 H         4.097339         0.572144         2.066340
 H         5.067879         0.826352        -0.335037
 H         3.035679         2.493750        -0.450165
 H         3.529686         1.704699        -1.997142
 H         4.296493        -1.454506         0.326470
