19
Iteration:  3247charge 0 multiplicity 1
 C        -0.036001        -0.238234        -0.055247
 C         1.476199         0.044780         0.002143
 C         1.980493         0.691858         1.279441
 C         3.416960         0.378556         1.261753
 C         3.960468         0.581568        -0.179556
 C         3.136359         1.518138        -0.912231
 O         1.824292         0.959256        -1.080249
 C         3.565384        -0.781971         0.219348
 O         2.246292        -1.139123        -0.173811
 H        -0.347543        -1.008165         0.589752
 H        -0.522351         0.652207         0.272697
 H        -0.145014        -0.512051        -1.060535
 H         1.926221         1.738914         1.308302
 H         1.485172         0.262472         2.152289
 H         4.054695         0.438711         2.116470
 H         5.072128         0.886354        -0.480219
 H         3.330901         2.502623        -0.274326
 H         3.564683         1.721293        -1.916026
 H         4.256996        -1.525356         0.509689
