19
Iteration:  2402charge 0 multiplicity 1
 C         0.029188        -0.177789        -0.059948
 C         1.497092         0.053068         0.114961
 C         1.925780         0.459127         1.471495
 C         3.421960         0.464874         1.271437
 C         3.961980         0.692902        -0.235784
 C         3.185963         1.236220        -1.312108
 O         1.803866         1.113802        -0.949190
 C         3.521576        -0.671966         0.277128
 O         2.269484        -1.066817        -0.163082
 H        -0.407470        -0.146117         0.932747
 H        -0.326163         0.650334        -0.731953
 H        -0.210765        -1.153317        -0.620183
 H         1.281049         1.310790         1.765331
 H         1.537933        -0.405278         1.993261
 H         4.157305         0.487766         2.113625
 H         5.067105         0.677407        -0.197384
 H         3.400787         2.365419        -1.457990
 H         3.450531         0.896754        -2.360271
 H         4.161220        -1.480159         0.584488
