19
Iteration:  1648charge 0 multiplicity 1
 C         0.029461        -0.265915         0.033587
 C         1.489975         0.081691        -0.083912
 C         1.990590         0.724066         1.267277
 C         3.458995         0.410647         1.186031
 C         3.999568         0.561770        -0.237000
 C         3.154078         1.425900        -1.055163
 O         1.752859         1.025011        -1.024748
 C         3.537614        -0.751927         0.301640
 O         2.244353        -1.117684        -0.078388
 H        -0.008296        -0.812806         0.954066
 H        -0.803619         0.515361        -0.103891
 H        -0.349998        -1.001138        -0.762751
 H         1.691454         1.715131         1.482986
 H         1.643385         0.038534         2.062877
 H         3.860462         0.593665         2.239049
 H         5.092798         0.626294        -0.241251
 H         3.217291         2.475803        -0.671950
 H         3.413105         1.370461        -2.101859
 H         4.172397        -1.647518         0.386388
