19
Iteration:  2117charge 0 multiplicity 1
 C         0.015364        -0.219779        -0.019586
 C         1.448407         0.084898         0.087973
 C         2.023497         0.737916         1.404290
 C         3.459684         0.380455         1.239512
 C         4.045910         0.683172        -0.185370
 C         3.112501         1.346391        -1.178899
 O         1.745809         0.963228        -1.047717
 C         3.541857        -0.744906         0.218672
 O         2.223865        -1.130420        -0.125220
 H        -0.073746        -1.217765         0.475266
 H        -0.717011         0.491934         0.316814
 H        -0.265190        -0.310115        -1.122492
 H         1.837457         1.819652         1.474660
 H         1.576753         0.287457         2.343120
 H         4.081389         0.436300         2.186758
 H         5.108765         0.651110        -0.241865
 H         3.374218         2.409793        -1.000259
 H         3.462026         1.135130        -2.209024
 H         4.137080        -1.622927         0.292010
