19
Iteration:   896
 C         0.001088        -0.194736        -0.047880
 C         1.463742         0.126237         0.003349
 C         1.969830         0.661996         1.458714
 C         3.487269         0.500150         1.220090
 C         3.976648         0.565003        -0.146568
 C         3.135228         1.318076        -1.253580
 O         1.766603         0.983137        -0.989640
 C         3.547509        -0.751613         0.299695
 O         2.265225        -1.120649        -0.159679
 H        -0.097214        -1.053174         0.538412
 H        -0.544332         0.729224         0.308098
 H        -0.267241        -0.459272        -1.064081
 H         1.635852         1.740816         1.678738
 H         1.609089        -0.073548         2.195102
 H         4.103037         0.526557         2.121369
 H         5.018723         0.758312        -0.166246
 H         3.256019         2.439403        -1.137243
 H         3.279970         0.987176        -2.255629
 H         4.326593        -1.473269         0.312105
