19
Iteration:  1256charge 0 multiplicity 1
 C         0.078597        -0.182509         0.011782
 C         1.494187         0.033964         0.028311
 C         1.990819         0.764290         1.293212
 C         3.419390         0.403515         1.237336
 C         3.947775         0.602899        -0.234766
 C         3.070164         1.438877        -1.008305
 O         1.746176         0.899355        -1.040469
 C         3.569690        -0.770881         0.272658
 O         2.303480        -1.171760        -0.171730
 H        -0.570091        -0.966976         0.496302
 H        -0.308579         0.792552         0.186070
 H        -0.009718        -0.158745        -1.123700
 H         1.761884         1.796160         1.012768
 H         1.528834         0.390720         2.307385
 H         4.113312         0.476593         2.087699
 H         5.038304         0.815358        -0.141122
 H         2.958396         2.523342        -0.580106
 H         3.622226         1.533538        -1.916016
 H         4.030357        -1.714148         0.408125
