19
Iteration:  1966charge 0 multiplicity 1
 C         0.018823        -0.293131        -0.143078
 C         1.445269         0.018567         0.044254
 C         1.978162         0.605175         1.399983
 C         3.473830         0.466957         1.225953
 C         3.960542         0.593525        -0.236523
 C         3.145445         1.191648        -1.387254
 O         1.746753         1.350311        -0.754080
 C         3.584651        -0.774563         0.353299
 O         2.242640        -1.113912        -0.120680
 H        -0.381304        -0.978848         0.657668
 H        -0.575176         0.578430        -0.068747
 H        -0.051597        -0.892618        -1.102982
 H         1.632814         1.674360         1.566070
 H         1.605809        -0.040233         2.277599
 H         4.239438         0.722037         1.978740
 H         4.981458         0.886490        -0.318352
 H         3.547823         2.232923        -1.542064
 H         3.398366         0.553140        -2.297694
 H         4.293675        -1.580448         0.325157
