19
Iteration:   243
 C         0.033785        -0.265634        -0.090638
 C         1.464069         0.098821         0.011633
 C         1.992188         0.764134         1.346991
 C         3.467054         0.332422         1.319176
 C         4.096476         0.632328        -0.099459
 C         3.107860         1.257509        -1.165548
 O         1.670916         1.056291        -0.983015
 C         3.582704        -0.706021         0.295037
 O         2.283779        -1.070000        -0.193529
 H        -0.315009        -1.037120         0.616601
 H        -0.660425         0.478219         0.085998
 H        -0.211691        -0.671107        -1.018229
 H         1.810116         1.834758         1.394725
 H         1.344918         0.280961         2.172197
 H         3.983920         0.305225         2.249279
 H         5.118639         0.871798        -0.342411
 H         3.104284         2.282184        -1.393732
 H         3.265120         0.739284        -2.151115
 H         4.164787        -1.597867         0.355995
