19
Iteration:  3335charge 0 multiplicity 1
 C        -0.028757        -0.176257        -0.121851
 C         1.504862         0.088605        -0.015546
 C         1.913854         0.462084         1.456759
 C         3.452015         0.398836         1.284614
 C         3.994391         0.666934        -0.079531
 C         3.185329         1.268060        -1.218693
 O         1.710140         1.152742        -0.958783
 C         3.602887        -0.733954         0.292832
 O         2.312054        -1.066230        -0.216167
 H        -0.425898        -0.692983         0.696468
 H        -0.515673         0.813693        -0.124070
 H        -0.378391        -0.706898        -1.041365
 H         1.582852         1.448565         1.781167
 H         1.703687        -0.346309         2.134836
 H         4.008717         0.527670         2.199067
 H         5.167107         0.953422        -0.261641
 H         3.200502         2.377702        -1.320519
 H         3.379163         0.838079        -2.216353
 H         4.235759        -1.658117         0.318140
