19
Iteration:   727charge 0 multiplicity 1
 C         0.008799        -0.282636        -0.020002
 C         1.426974         0.108147         0.063986
 C         1.882742         0.722955         1.406434
 C         3.424052         0.400367         1.312263
 C         3.988298         0.597105        -0.179035
 C         3.144692         1.142950        -1.352690
 O         1.795854         1.132362        -0.916347
 C         3.575499        -0.712764         0.342652
 O         2.341825        -1.014535        -0.236629
 H        -0.165082        -1.237108         0.643407
 H        -0.732972         0.504356         0.377989
 H        -0.352865        -0.549362        -1.026549
 H         1.638619         1.725622         1.365315
 H         1.651209         0.222163         2.370638
 H         4.078112         0.498499         2.192533
 H         5.017231         0.710254        -0.378441
 H         3.579323         2.177507        -1.485844
 H         3.275528         0.557236        -2.229836
 H         4.203337        -1.573051         0.285321
