19
Iteration:  1096charge 0 multiplicity 1
 C        -0.071243        -0.160890        -0.073845
 C         1.436778         0.002285         0.030971
 C         2.029108         0.761827         1.321824
 C         3.489761         0.434381         1.270251
 C         4.130671         0.600307        -0.157980
 C         3.071668         1.312317        -1.051807
 O         1.686690         0.966073        -1.014469
 C         3.590152        -0.728987         0.284071
 O         2.312316        -1.156152        -0.195936
 H        -0.435044        -0.938258         0.613351
 H        -0.538011         0.723499         0.142903
 H        -0.401664        -0.350869        -1.105484
 H         1.800702         1.897466         1.222700
 H         1.596773         0.478515         2.274632
 H         3.991643         0.099571         2.162286
 H         5.119462         1.074201        -0.415849
 H         2.985341         2.432964        -0.925163
 H         3.433733         1.182723        -2.072627
 H         4.149583        -1.597004         0.535054
