19
Iteration:  4391charge 0 multiplicity 1
 C         0.023242        -0.166121        -0.128256
 C         1.483766         0.062708         0.075855
 C         1.912438         0.451310         1.395253
 C         3.386425         0.482671         1.209944
 C         4.020029         0.666009        -0.144828
 C         3.141758         1.284194        -1.225464
 O         1.760814         1.116942        -0.872948
 C         3.562124        -0.728093         0.347708
 O         2.301795        -1.096394        -0.258760
 H        -0.409038        -0.713438         0.738287
 H        -0.378450         0.827348        -0.196091
 H        -0.095499        -0.743383        -1.056595
 H         1.297788         1.343788         1.680128
 H         1.763529        -0.378464         2.108484
 H         4.130876         0.743931         2.052350
 H         5.089101         0.909689        -0.020156
 H         3.402066         2.395347        -1.172003
 H         3.421834         0.918983        -2.210620
 H         4.223753        -1.635764         0.370283
