19
Iteration:  3730
 C        -0.045182        -0.368711        -0.152183
 C         1.404656         0.155532         0.066077
 C         2.001082         0.611511         1.414256
 C         3.451456         0.386651         1.311398
 C         4.020583         0.613307        -0.076481
 C         3.230475         1.296763        -1.171906
 O         1.755613         1.194321        -0.970006
 C         3.520509        -0.763385         0.296581
 O         2.272564        -1.029601        -0.272294
 H        -0.168790        -1.138724         0.709124
 H        -0.789741         0.432963        -0.131628
 H        -0.211522        -0.865041        -1.098144
 H         1.699884         1.726751         1.626714
 H         1.651708        -0.069278         2.206067
 H         4.169137         0.660105         2.119182
 H         5.016929         0.751981        -0.114908
 H         3.543682         2.335356        -1.220553
 H         3.458565         0.778198        -2.139289
 H         3.981615        -1.790817         0.215810
