19
Iteration:  3294
 C        -0.009789        -0.267754        -0.112846
 C         1.430937         0.061933         0.042491
 C         1.989977         0.733051         1.424383
 C         3.465053         0.331349         1.268789
 C         3.992585         0.603814        -0.144174
 C         3.126033         1.490851        -1.003412
 O         1.809562         0.945281        -1.094533
 C         3.531711        -0.768437         0.205714
 O         2.259681        -1.074964        -0.164116
 H        -0.228564        -1.163136         0.429338
 H        -0.503171         0.558829         0.399507
 H        -0.145592        -0.443245        -1.217346
 H         1.692864         1.856331         1.288676
 H         1.411725         0.248694         2.217877
 H         4.234795         0.320350         2.048172
 H         5.058789         0.666158        -0.034090
 H         3.177500         2.634931        -0.640812
 H         3.499976         1.480357        -2.033765
 H         4.181357        -1.681022         0.055332
