19
Iteration:  4311charge 0 multiplicity 1
 C        -0.108816        -0.315142        -0.116413
 C         1.444845         0.073416         0.025373
 C         1.962706         0.596405         1.387595
 C         3.438422         0.377764         1.234953
 C         4.092820         0.621314        -0.157314
 C         3.222334         1.463475        -1.121365
 O         1.781467         1.078833        -1.022583
 C         3.602237        -0.764641         0.333965
 O         2.233780        -1.083334        -0.159618
 H        -0.347955        -1.254821         0.479694
 H        -0.844311         0.503502         0.274429
 H        -0.327845        -0.307287        -1.211445
 H         1.610175         1.600290         1.585712
 H         1.601822        -0.119533         2.214363
 H         4.021112         0.560282         2.088325
 H         5.142789         0.904028        -0.384286
 H         3.205135         2.656008        -0.909732
 H         3.566780         1.240276        -2.191926
 H         4.083336        -1.716069         0.476171
