19
Iteration:  1863
 C        -0.094454        -0.297962        -0.022066
 C         1.451579         0.146553        -0.003937
 C         2.118041         0.805963         1.370930
 C         3.607142         0.314566         1.275096
 C         4.100061         0.581137        -0.172317
 C         3.065989         1.498818        -1.039405
 O         1.723470         0.876287        -1.192571
 C         3.471904        -0.705695         0.270558
 O         2.195674        -1.133024        -0.080341
 H        -0.249594        -0.944080         0.765916
 H        -0.793535         0.556800        -0.086501
 H        -0.199689        -0.799157        -0.988662
 H         2.018688         1.871067         1.571508
 H         1.559261         0.267944         2.180406
 H         4.238738         0.243185         2.207981
 H         5.156541         0.732823        -0.463987
 H         2.939474         2.481177        -0.587418
 H         3.576425         1.667809        -2.051639
 H         4.207146        -1.472119         0.216555
