19
Iteration:  2834charge 0 multiplicity 1
 C        -0.146175        -0.188666        -0.076792
 C         1.512735         0.048173         0.008109
 C         2.013196         0.701509         1.323241
 C         3.482179         0.343381         1.296773
 C         4.008779         0.601066        -0.128450
 C         3.112886         1.461379        -1.005887
 O         1.792923         0.972499        -1.053489
 C         3.548166        -0.802265         0.289390
 O         2.304155        -1.104899        -0.245067
 H        -0.546523        -0.669780         0.884880
 H        -0.830247         0.638178        -0.264439
 H        -0.292202        -1.002820        -0.724454
 H         1.791107         1.717800         1.352275
 H         1.500288         0.350082         2.150893
 H         4.211434         0.480239         2.118569
 H         5.059151         0.850618        -0.292024
 H         3.250322         2.584677        -0.598552
 H         3.378027         1.410942        -2.070283
 H         4.353818        -1.597527         0.286367
