19
Iteration:  1446
 C         0.037671        -0.216094        -0.057865
 C         1.495854         0.076834         0.036618
 C         2.024070         0.691041         1.361214
 C         3.463434         0.409453         1.290855
 C         3.970757         0.639537        -0.185480
 C         3.058641         1.413649        -1.056015
 O         1.774164         0.923912        -1.138147
 C         3.580744        -0.707558         0.234017
 O         2.225738        -1.182496        -0.090638
 H        -0.438864        -0.814187         0.737181
 H        -0.501612         0.773273         0.188602
 H        -0.320164        -0.557921        -1.007165
 H         1.987426         1.854042         1.422022
 H         1.586170         0.261975         2.223101
 H         4.199093         0.272146         2.107165
 H         5.015183         0.937932        -0.329812
 H         2.867229         2.528455        -0.839316
 H         3.567475         1.359664        -1.991275
 H         4.271231        -1.545467         0.214712
