19
Iteration:  2019charge 0 multiplicity 1
 C         0.013687        -0.212377        -0.040174
 C         1.453861         0.194522         0.007731
 C         2.022061         0.585274         1.481044
 C         3.474442         0.326578         1.318896
 C         3.998247         0.713787        -0.079367
 C         3.097765         1.250462        -1.260583
 O         1.713043         1.026896        -1.077678
 C         3.562575        -0.761766         0.215595
 O         2.258948        -1.005383        -0.139775
 H        -0.340456        -0.658181         0.946267
 H        -0.614878         0.656789        -0.212724
 H        -0.172473        -0.902222        -0.859377
 H         1.873887         1.620292         1.874511
 H         1.608019        -0.183991         2.235909
 H         4.229393         0.544111         2.081653
 H         5.073072         0.742398        -0.169904
 H         3.270686         2.300273        -1.574511
 H         3.538212         0.514247        -2.045375
 H         4.312440        -1.502954         0.032989
