19
Iteration:   932charge 0 multiplicity 1
 C        -0.047641        -0.279067        -0.146477
 C         1.399819         0.178584         0.036484
 C         2.033390         0.734090         1.415727
 C         3.476681         0.415232         1.254429
 C         4.016037         0.636130        -0.143112
 C         3.096133         1.191108        -1.267199
 O         1.701233         1.166240        -0.907795
 C         3.634624        -0.780495         0.314291
 O         2.307424        -1.164727        -0.171938
 H        -0.217139        -1.112482         0.596774
 H        -0.787378         0.433191         0.135361
 H        -0.342153        -0.502084        -1.144873
 H         1.867915         1.939630         1.637507
 H         1.575408         0.239847         2.336826
 H         4.155039         0.414902         2.114470
 H         5.069253         0.876859         0.087910
 H         3.200763         2.226477        -1.651609
 H         3.410679         0.537302        -2.064641
 H         4.425485        -1.594713         0.208599
