19
Iteration:  1837
 C         0.032424        -0.180510        -0.120619
 C         1.509950         0.077445         0.128979
 C         1.973235         0.667107         1.425414
 C         3.517879         0.379432         1.134938
 C         3.956265         0.607278        -0.177773
 C         3.082122         1.406731        -1.168027
 O         1.729524         0.988695        -0.980571
 C         3.518106        -0.758462         0.225897
 O         2.266541        -1.143143        -0.035890
 H        -0.493415        -0.709857         0.742479
 H        -0.344170         0.751766        -0.480812
 H         0.024596        -0.830366        -1.038084
 H         1.788521         1.762918         1.347528
 H         1.584146         0.225800         2.309682
 H         4.268061         0.531094         1.891120
 H         5.001505         0.824105        -0.315154
 H         3.156372         2.502383        -1.011311
 H         3.446903         1.131077        -2.150574
 H         4.352374        -1.486943         0.139841
