19
Iteration:  3836
 C         0.017343        -0.282389        -0.049931
 C         1.468244         0.100337        -0.044964
 C         1.972487         0.663640         1.311791
 C         3.460047         0.324304         1.277211
 C         4.046573         0.631119        -0.084553
 C         3.181903         1.510768        -1.012803
 O         1.750630         1.021339        -1.114149
 C         3.512967        -0.761982         0.290176
 O         2.233293        -1.125917        -0.167014
 H        -0.425306        -0.857651         0.858499
 H        -0.638844         0.588205        -0.020811
 H        -0.166067        -0.817258        -0.928125
 H         1.851514         1.735006         1.378486
 H         1.364729         0.205775         2.120854
 H         4.071099         0.154436         2.154689
 H         5.083085         0.571831        -0.221532
 H         3.211056         2.656776        -0.830992
 H         3.673838         1.494226        -2.001781
 H         4.123378        -1.663402         0.289697
