19
Iteration:  4739
 C         0.045490        -0.178273        -0.093765
 C         1.487461         0.165540         0.038911
 C         1.986454         0.492926         1.497220
 C         3.414615         0.361045         1.310425
 C         3.948546         0.690871        -0.078650
 C         3.126801         1.267367        -1.189510
 O         1.745042         1.103558        -0.947784
 C         3.595142        -0.711467         0.224794
 O         2.275780        -1.081633        -0.301697
 H        -0.568752        -0.955625         0.560001
 H        -0.452695         0.818910        -0.194984
 H         0.013780        -0.629685        -1.053006
 H         1.663904         1.520252         1.756171
 H         1.565022        -0.302017         2.155118
 H         4.042215         0.538093         2.153496
 H         5.066318         0.975590        -0.382202
 H         3.386011         2.291742        -1.293693
 H         3.291235         0.570190        -2.051891
 H         4.211772        -1.602277         0.378981
