19
Iteration:   711charge 0 multiplicity 1
 C         0.018215        -0.278569        -0.057221
 C         1.506308         0.096161         0.078858
 C         1.933478         0.653683         1.391127
 C         3.421865         0.597647         1.152643
 C         4.048839         0.535565        -0.211917
 C         3.155392         1.154457        -1.216281
 O         1.724169         1.190160        -0.880486
 C         3.550647        -0.803887         0.339719
 O         2.272702        -1.092720        -0.213005
 H        -0.279546        -1.124880         0.473711
 H        -0.563859         0.587385         0.189241
 H        -0.096431        -0.549428        -1.121798
 H         1.582615         1.761913         1.564652
 H         1.597341        -0.015202         2.176605
 H         4.102684         0.838961         1.960555
 H         5.131266         0.845468        -0.135775
 H         3.290424         2.212926        -1.348423
 H         3.246946         0.604811        -2.241833
 H         4.227278        -1.551183         0.805432
