19
Iteration:  4168
 C        -0.013254        -0.221673        -0.211275
 C         1.496502         0.008653         0.067021
 C         1.905580         0.606301         1.505685
 C         3.345655         0.466908         1.207944
 C         3.990937         0.703344        -0.068464
 C         3.116670         1.111575        -1.239308
 O         1.783912         1.183651        -0.791792
 C         3.611053        -0.769545         0.364000
 O         2.360579        -1.060072        -0.384665
 H        -0.646609        -1.001627         0.429723
 H        -0.520495         0.751269         0.048265
 H        -0.002537        -0.137089        -1.325843
 H         1.481126         1.661218         1.418339
 H         1.500725         0.036351         2.396943
 H         4.025437         0.605830         2.062243
 H         5.145711         1.013035        -0.026511
 H         3.528100         1.982133        -1.547560
 H         3.129321         0.344313        -2.084660
 H         4.418696        -1.469801         0.496777
