19
Iteration:   405
 C        -0.040900        -0.266976         0.020459
 C         1.468343         0.056574         0.002770
 C         2.060764         0.802522         1.295105
 C         3.475617         0.316065         1.349693
 C         3.974057         0.649685        -0.030040
 C         3.104910         1.401079        -1.070677
 O         1.739816         0.922324        -1.170518
 C         3.601202        -0.736962         0.222339
 O         2.230031        -1.115238        -0.164451
 H        -0.476372        -1.086864         0.729469
 H        -0.451318         0.724328         0.272015
 H        -0.336498        -0.574804        -0.991155
 H         1.964420         1.927545         0.967599
 H         1.470979         0.695677         2.198452
 H         4.210093         0.388881         2.173710
 H         5.041535         0.818410        -0.059983
 H         3.142515         2.545147        -0.950301
 H         3.584058         1.168815        -1.989546
 H         4.408049        -1.568265         0.078777
