19
Iteration:  3296charge 0 multiplicity 1
 C        -0.011143        -0.249729        -0.119828
 C         1.436208         0.043200         0.045569
 C         1.974683         0.723006         1.424332
 C         3.455586         0.347335         1.273767
 C         4.010054         0.605247        -0.135442
 C         3.122504         1.491961        -1.019541
 O         1.805594         0.953147        -1.083199
 C         3.531705        -0.776788         0.201760
 O         2.268456        -1.082461        -0.169977
 H        -0.266486        -1.199378         0.472030
 H        -0.498656         0.591659         0.394126
 H        -0.165651        -0.442522        -1.205240
 H         1.724939         1.869749         1.321243
 H         1.381557         0.264662         2.267114
 H         4.268659         0.352739         2.047315
 H         5.013529         0.661726        -0.078512
 H         3.239968         2.525464        -0.660542
 H         3.468773         1.506293        -2.062562
 H         4.219068        -1.651163         0.054129
