19
Iteration:   531charge 0 multiplicity 1
 C         0.026313        -0.283739         0.050731
 C         1.451202         0.078008        -0.010288
 C         1.944198         0.611042         1.354160
 C         3.388962         0.519323         1.187693
 C         3.957567         0.642877        -0.139141
 C         3.229256         1.281401        -1.270359
 O         1.812814         1.127652        -0.965432
 C         3.538770        -0.794167         0.305567
 O         2.278691        -1.070936        -0.155339
 H        -0.111871        -1.124521         0.677497
 H        -0.716920         0.464982         0.362327
 H        -0.383756        -0.687871        -0.885049
 H         1.621975         1.647824         1.453234
 H         1.492338         0.033675         2.300837
 H         4.098108         0.434223         1.995978
 H         5.018305         0.856672        -0.071649
 H         3.393528         2.363426        -1.492108
 H         3.324450         0.716362        -2.285989
 H         4.173835        -1.635476         0.683216
