19
Iteration:  1254
 C         0.088306        -0.180934        -0.002156
 C         1.500564         0.028903         0.019865
 C         1.988419         0.769035         1.308813
 C         3.430143         0.398417         1.221310
 C         3.955082         0.635531        -0.216663
 C         3.057986         1.425899        -1.017098
 O         1.755318         0.899667        -1.049552
 C         3.565702        -0.784591         0.283785
 O         2.292350        -1.167855        -0.165333
 H        -0.524168        -0.918693         0.461388
 H        -0.315689         0.818556         0.251485
 H        -0.077243        -0.184420        -1.062014
 H         1.747645         1.762831         1.088448
 H         1.533888         0.315733         2.300446
 H         4.090156         0.483864         2.073519
 H         5.014630         0.812558        -0.191310
 H         2.958278         2.525604        -0.564922
 H         3.575542         1.528606        -1.956067
 H         4.007766        -1.748299         0.407349
