19
Iteration:  2446
 C        -0.064882        -0.363043        -0.059829
 C         1.460152         0.053866         0.015358
 C         2.015312         0.843176         1.295614
 C         3.521159         0.353422         1.270144
 C         4.089820         0.550023        -0.145497
 C         3.133523         1.464794        -0.940334
 O         1.735368         0.960694        -1.029910
 C         3.540952        -0.741250         0.257045
 O         2.205254        -1.077582        -0.208924
 H        -0.596408        -0.567138         0.914548
 H        -0.591140         0.476266        -0.627616
 H        -0.168315        -1.133486        -0.858182
 H         2.064205         1.935924         1.082449
 H         1.663517         0.794428         2.310600
 H         4.116103         0.101643         2.234894
 H         5.166168         0.560003        -0.494387
 H         3.198665         2.627576        -0.776784
 H         3.417545         1.397915        -2.111552
 H         4.130864        -1.634161         0.386688
