19
Iteration:  3206charge 0 multiplicity 1
 C        -0.032155        -0.198341        -0.126918
 C         1.472425         0.116818         0.052644
 C         1.993247         0.478651         1.444420
 C         3.487582         0.300522         1.308745
 C         3.945232         0.704334        -0.072118
 C         3.113903         1.293902        -1.179965
 O         1.772952         1.136840        -1.075223
 C         3.595925        -0.665275         0.252932
 O         2.276727        -1.086901        -0.177638
 H        -0.479011        -0.808499         0.622781
 H        -0.707586         0.706728        -0.200728
 H        -0.270144        -0.850259        -1.055018
 H         1.652789         1.576916         1.741329
 H         1.585531        -0.183839         2.232734
 H         4.156559         0.388108         2.104171
 H         5.058153         0.797984         0.082110
 H         3.237507         2.328957        -1.205851
 H         3.571525         0.965933        -2.126167
 H         4.293246        -1.457587         0.240037
