19
Iteration:  4474charge 0 multiplicity 1
 C         0.004551        -0.297500         0.023084
 C         1.451438         0.082793        -0.041768
 C         1.990973         0.665479         1.187193
 C         3.429683         0.368960         1.232948
 C         4.017207         0.552663        -0.118127
 C         3.164271         1.569561        -0.890463
 O         1.792646         1.030302        -1.116185
 C         3.587560        -0.790085         0.246408
 O         2.222599        -1.153204        -0.186134
 H        -0.073935        -1.076881         0.729832
 H        -0.594230         0.575532         0.441219
 H        -0.613490        -0.576005        -0.911678
 H         1.757527         1.710184         1.163040
 H         1.372138         0.282308         2.073673
 H         4.094372         0.501274         2.095696
 H         5.093219         0.681172        -0.133920
 H         3.092181         2.566447        -0.455134
 H         3.532889         1.780642        -1.903922
 H         4.156036        -1.681594         0.603835
