19
Iteration:  2756charge 0 multiplicity 1
 C         0.024621        -0.161785        -0.176794
 C         1.479212         0.108462         0.044039
 C         1.871588         0.539764         1.413833
 C         3.411258         0.465814         1.256447
 C         4.045244         0.713032        -0.109912
 C         3.075209         1.075531        -1.221695
 O         1.748172         1.158346        -0.812733
 C         3.613622        -0.717687         0.333382
 O         2.345141        -1.117193        -0.283533
 H        -0.369915        -1.108336         0.030186
 H        -0.503859         0.622101         0.395695
 H        -0.178246         0.149276        -1.243003
 H         1.703424         1.528510         1.553295
 H         1.544133        -0.084930         2.195572
 H         4.099037         0.540246         2.132272
 H         5.085745         0.931851        -0.344391
 H         3.252928         2.202367        -1.550968
 H         3.031870         0.366434        -2.065096
 H         4.401034        -1.454469         0.519633
