19
Iteration:   505charge 0 multiplicity 1
 C         0.027189        -0.323934         0.003924
 C         1.433590         0.118843        -0.050337
 C         1.976271         0.758447         1.441471
 C         3.448626         0.403910         1.442274
 C         4.038555         0.595428        -0.113100
 C         3.166876         1.138396        -1.189507
 O         1.646066         1.097635        -1.038000
 C         3.615711        -0.728861         0.258986
 O         2.304550        -0.958371        -0.309323
 H        -0.271873        -1.005607         0.845713
 H        -0.644904         0.536074         0.066252
 H        -0.314556        -1.004273        -0.839605
 H         1.785573         1.838488         1.520209
 H         1.407843         0.307440         2.243918
 H         4.187574         0.320264         2.252235
 H         5.134723         0.822674        -0.245469
 H         3.378833         2.156780        -1.527765
 H         3.246897         0.489009        -1.976695
 H         4.203963        -1.599434         0.237948
