19
Iteration:   834
 C         0.045841        -0.268725        -0.028426
 C         1.477048         0.182679         0.099697
 C         2.060458         0.777719         1.415317
 C         3.496147         0.310487         1.219528
 C         4.005753         0.686137        -0.169214
 C         3.048748         1.442865        -1.042309
 O         1.766135         0.852777        -1.241133
 C         3.518985        -0.789482         0.326934
 O         2.164294        -1.104141        -0.116894
 H        -0.434345        -0.825598         0.790577
 H        -0.648163         0.571030        -0.268647
 H         0.042546        -0.836636        -0.927561
 H         2.237343         1.882264         1.484328
 H         1.723530         0.520838         2.423347
 H         4.370707         0.104257         1.865485
 H         5.049295         0.742509        -0.249771
 H         3.125665         2.487913        -0.813807
 H         3.387444         1.490238        -2.154308
 H         4.222049        -1.596406         0.265526
