19
Iteration:  2384charge 0 multiplicity 1
 C        -0.157152        -0.199596        -0.056765
 C         1.418131         0.070400         0.011424
 C         1.931949         0.483609         1.457991
 C         3.383811         0.562882         1.191450
 C         4.100249         0.665384        -0.151473
 C         3.192843         1.171008        -1.276290
 O         1.800212         1.159705        -0.836213
 C         3.659871        -0.740260         0.325105
 O         2.274166        -1.078046        -0.284148
 H        -0.489798        -0.398252         1.051628
 H        -0.537127         0.713969        -0.588018
 H        -0.383516        -1.097363        -0.587005
 H         1.480873         1.448933         1.757499
 H         1.754707        -0.330834         2.275115
 H         4.083806         0.786747         2.065149
 H         5.167030         0.936201        -0.137043
 H         3.374726         2.138290        -1.689105
 H         3.369237         0.491236        -2.113854
 H         4.440172        -1.523207         0.422425
