19
Iteration:  1827
 C         0.021189        -0.171191        -0.109743
 C         1.443859         0.024591         0.114017
 C         1.986384         0.681127         1.440926
 C         3.450052         0.464711         1.262071
 C         4.002237         0.615299        -0.325856
 C         3.155439         1.356798        -1.210947
 O         1.728031         1.053085        -0.905113
 C         3.564362        -0.703339         0.260277
 O         2.285460        -1.228279        -0.123868
 H        -0.592643        -0.571478         0.723649
 H        -0.399711         0.772768        -0.315444
 H        -0.068531        -0.910509        -0.955524
 H         1.588591         1.723589         1.566288
 H         1.583796         0.067915         2.183915
 H         4.145099         0.533488         2.113309
 H         5.078533         0.682995        -0.402769
 H         3.196356         2.446030        -1.147252
 H         3.345935         1.062944        -2.277130
 H         4.231185        -1.598368         0.359635
