19
Iteration:  1442charge 0 multiplicity 1
 C         0.027588        -0.205361        -0.062575
 C         1.542639         0.087140         0.034850
 C         2.016006         0.712591         1.379583
 C         3.440982         0.433939         1.297025
 C         3.956863         0.651562        -0.162627
 C         3.047053         1.372149        -1.072032
 O         1.751718         0.919619        -1.080066
 C         3.577258        -0.728694         0.214256
 O         2.257587        -1.180811        -0.129353
 H        -0.340473        -0.840339         0.715075
 H        -0.413089         0.755673         0.129837
 H        -0.227331        -0.496238        -1.110232
 H         2.021728         1.830261         1.259510
 H         1.550127         0.359278         2.352268
 H         4.079980         0.328742         2.132682
 H         5.015227         0.752521        -0.344911
 H         2.986704         2.456547        -0.817308
 H         3.437784         1.364021        -2.120973
 H         4.244723        -1.595359         0.160671
