19
Iteration:  3162
 C        -0.063125        -0.345584        -0.140747
 C         1.388563         0.057592         0.010410
 C         1.953325         0.604131         1.379880
 C         3.449715         0.460646         1.272647
 C         4.023973         0.586423        -0.113546
 C         3.184849         1.211736        -1.206177
 O         1.768671         1.271677        -0.739750
 C         3.594101        -0.798776         0.345938
 O         2.335532        -0.999063        -0.346537
 H        -0.209506        -1.142522         0.585053
 H        -0.879716         0.445331        -0.198302
 H        -0.074597        -0.975470        -1.158250
 H         1.519926         1.708172         1.304100
 H         1.531670         0.221103         2.340925
 H         3.978391         0.533077         2.206958
 H         5.102009         0.975337        -0.391605
 H         3.545580         2.179043        -1.364464
 H         3.133426         0.743040        -2.224726
 H         4.119248        -1.725303         0.256590
