19
Iteration:   913
 C        -0.018125        -0.246266        -0.137519
 C         1.490287         0.127720         0.138896
 C         2.010698         0.634048         1.435848
 C         3.489943         0.339381         1.323360
 C         4.025174         0.698897        -0.162399
 C         3.134051         1.201627        -1.236985
 O         1.691671         1.037379        -1.033343
 C         3.578430        -0.678935         0.258827
 O         2.246718        -1.014249        -0.110017
 H        -0.343763        -1.226893         0.415893
 H        -0.609004         0.586746         0.194388
 H        -0.078769        -0.285448        -1.288892
 H         1.761090         1.673580         1.529789
 H         1.612278         0.115858         2.325045
 H         4.254034         0.476673         2.073572
 H         5.085857         0.865702        -0.546030
 H         3.269197         2.251638        -1.415811
 H         3.285838         0.576920        -2.236839
 H         4.028026        -1.691264         0.357645
