19
Iteration:    71
 C        -0.087352        -0.186079        -0.159746
 C         1.387956         0.019830         0.130421
 C         2.058218         0.707864         1.401696
 C         3.491333         0.423048         1.337544
 C         4.032941         0.641789        -0.140309
 C         3.084118         1.289589        -1.256852
 O         1.657382         1.090151        -0.966439
 C         3.639800        -0.730464         0.370877
 O         2.355214        -1.211375        -0.212506
 H        -0.781995        -0.973562         0.429415
 H        -0.495348         0.885236        -0.155778
 H        -0.043104        -0.478932        -1.265513
 H         1.902182         1.759506         1.283649
 H         1.508696         0.297100         2.263018
 H         4.176931         0.447356         2.191298
 H         5.069945         0.831404        -0.448197
 H         3.261117         2.414803        -1.364751
 H         3.271915         0.835666        -2.200249
 H         4.449215        -1.445451         0.482839
