19
Iteration:  1843charge 0 multiplicity 1
 C         0.041740        -0.216654        -0.134964
 C         1.500121         0.105821         0.099246
 C         2.026379         0.667502         1.384822
 C         3.530236         0.355683         1.192812
 C         3.943966         0.662366        -0.172652
 C         3.043596         1.410449        -1.123079
 O         1.743418         0.949733        -1.030680
 C         3.587566        -0.807740         0.201305
 O         2.194440        -1.096774        -0.009691
 H        -0.447060        -0.657778         0.737726
 H        -0.553661         0.727082        -0.405570
 H        -0.024317        -0.803781        -1.019864
 H         1.861392         1.735576         1.392906
 H         1.663133         0.341068         2.436177
 H         4.290874         0.493339         1.954648
 H         5.029007         0.821718        -0.287054
 H         3.216947         2.505055        -0.966695
 H         3.366432         1.281336        -2.197994
 H         4.309629        -1.601896         0.185675
