19
Iteration:   566charge 0 multiplicity 1
 C        -0.119218        -0.175926        -0.194248
 C         1.481608         0.112543         0.101150
 C         2.022783         0.654202         1.367069
 C         3.505419         0.414968         1.209109
 C         4.019292         0.630124        -0.220123
 C         3.073667         1.362393        -1.165482
 O         1.698277         0.914118        -0.994034
 C         3.620652        -0.731750         0.334081
 O         2.309676        -1.095509        -0.035666
 H        -0.346454        -1.131881         0.305460
 H        -0.685172         0.681876         0.130313
 H        -0.107280        -0.200197        -1.244813
 H         1.825147         1.796767         1.432828
 H         1.702412         0.102997         2.311802
 H         4.253553         0.415321         2.004118
 H         5.055853         0.882212        -0.315177
 H         3.159958         2.463778        -1.065174
 H         3.422201         1.004799        -2.260442
 H         4.146501        -1.690759         0.551558
