19
Iteration:  3023
 C        -0.058624        -0.297498        -0.119557
 C         1.465095         0.095422        -0.010834
 C         1.983363         0.659041         1.420507
 C         3.497467         0.408608         1.228995
 C         3.988438         0.620229        -0.147673
 C         3.171426         1.450541        -1.030975
 O         1.777699         1.028502        -1.010804
 C         3.543926        -0.731738         0.240145
 O         2.219023        -1.147721        -0.176385
 H        -0.313926        -0.862533         0.763373
 H        -0.518777         0.692788        -0.314529
 H        -0.058829        -0.959022        -1.071804
 H         1.652001         1.738449         1.635346
 H         1.711353         0.139989         2.311633
 H         4.246214         0.419292         2.012758
 H         5.065984         0.634090        -0.176497
 H         3.423625         2.530966        -0.889766
 H         3.392444         1.344909        -2.108865
 H         4.161132        -1.602698         0.412556
