19
Iteration:  1980
 C         0.006371        -0.351047        -0.107286
 C         1.465769         0.128869         0.045585
 C         1.912351         0.663176         1.327831
 C         3.463838         0.472702         1.144055
 C         4.044586         0.566567        -0.202975
 C         3.120275         1.138038        -1.249859
 O         1.757981         1.326091        -0.703948
 C         3.590725        -0.781902         0.325302
 O         2.297964        -1.098014        -0.208793
 H        -0.170895        -0.749460         0.855857
 H        -0.596585         0.530500        -0.325914
 H        -0.328112        -1.117067        -0.928807
 H         1.562065         1.729357         1.410577
 H         1.666420         0.096801         2.185314
 H         3.973338         0.684784         2.132543
 H         5.116665         0.631977        -0.353148
 H         3.385342         2.179301        -1.568977
 H         2.876813         0.629096        -2.097398
 H         4.183321        -1.664278         0.458201
