19
Iteration:  2208charge 0 multiplicity 1
 C        -0.054658        -0.338553        -0.125672
 C         1.488301         0.088600         0.049505
 C         2.039656         0.735091         1.418683
 C         3.511872         0.390936         1.271151
 C         4.046865         0.548846        -0.198761
 C         3.076800         1.282763        -1.225361
 O         1.677400         1.224506        -0.897320
 C         3.547186        -0.807623         0.326715
 O         2.296436        -1.095755        -0.209239
 H        -0.521585        -0.726124         0.745013
 H        -0.667211         0.542720        -0.394097
 H        -0.056944        -1.029685        -1.028216
 H         1.778391         1.859313         1.451405
 H         1.622780         0.288400         2.379800
 H         4.205447         0.679829         1.985509
 H         5.103911         0.705193        -0.395556
 H         3.393202         2.312390        -1.068516
 H         3.351286         0.815614        -2.275451
 H         4.141510        -1.678563         0.661237
