19
Iteration:  1595charge 0 multiplicity 1
 C         0.016669        -0.225332        -0.150181
 C         1.473705         0.104760         0.129895
 C         1.925372         0.639506         1.403432
 C         3.551129         0.402358         1.288453
 C         4.004917         0.724307        -0.152696
 C         3.039300         1.084112        -1.268422
 O         1.687236         1.120679        -0.847150
 C         3.614212        -0.717589         0.285493
 O         2.310885        -1.039549        -0.240610
 H        -0.437846        -1.060639         0.306488
 H        -0.590391         0.712339         0.018604
 H         0.089125        -0.485880        -1.183145
 H         1.773013         1.718030         1.438321
 H         1.407852         0.184441         2.252848
 H         4.199111         0.490403         2.213019
 H         5.078839         0.843425        -0.150719
 H         3.297002         2.052608        -1.663263
 H         3.242759         0.323107        -2.106843
 H         4.271899        -1.588164         0.402499
