19
Iteration:  1335charge 0 multiplicity 1
 C        -0.052515        -0.196027        -0.098277
 C         1.448553         0.012930         0.084196
 C         2.036202         0.616715         1.302130
 C         3.477183         0.430323         1.210550
 C         4.032893         0.686655        -0.117956
 C         3.111309         1.257252        -1.183459
 O         1.665434         1.106718        -0.920939
 C         3.634536        -0.705133         0.314516
 O         2.291482        -1.148203        -0.201445
 H        -0.373370        -0.772252         0.777087
 H        -0.529019         0.815033        -0.176177
 H        -0.216251        -0.773558        -1.064289
 H         1.581227         1.661554         1.421864
 H         1.674964         0.162976         2.231436
 H         4.056636         0.483987         2.116196
 H         5.117702         0.842739        -0.163674
 H         3.366195         2.403478        -1.100534
 H         3.414546         0.905080        -2.189008
 H         4.143767        -1.672580         0.513742
