19
Iteration:  2994charge 0 multiplicity 1
 C        -0.030764        -0.185059        -0.159142
 C         1.500779         0.022195        -0.011144
 C         1.905418         0.551389         1.414924
 C         3.433075         0.356980         1.238231
 C         3.973699         0.635540        -0.116340
 C         3.100949         1.276887        -1.238074
 O         1.735597         1.157399        -0.850950
 C         3.630355        -0.728256         0.331770
 O         2.345160        -1.053898        -0.215493
 H        -0.489089        -0.667511         0.677863
 H        -0.384627         0.866667        -0.218519
 H        -0.167470        -0.651510        -1.117419
 H         1.718283         1.582693         1.631054
 H         1.645895        -0.057710         2.352619
 H         4.151623         0.514806         2.031127
 H         5.032895         0.848038        -0.132526
 H         3.358714         2.328431        -1.383040
 H         3.159390         0.611744        -2.133485
 H         4.326173        -1.558654         0.384393
