19
Iteration:  1085charge 0 multiplicity 1
 C        -0.016365        -0.204451        -0.052620
 C         1.464967         0.062115         0.048345
 C         2.008419         0.798709         1.324436
 C         3.541835         0.373036         1.267577
 C         4.015253         0.647486        -0.095582
 C         3.100419         1.361482        -1.058048
 O         1.697116         0.890041        -1.046744
 C         3.564511        -0.758857         0.222579
 O         2.251674        -1.119700        -0.195545
 H        -0.402335        -1.046365         0.558189
 H        -0.416276         0.668371         0.286765
 H        -0.221097        -0.415134        -1.105200
 H         1.811463         1.902142         1.005801
 H         1.490629         0.559848         2.234386
 H         4.221888         0.567229         2.101615
 H         5.123079         0.557486        -0.130690
 H         3.233148         2.432541        -0.675992
 H         3.377578         1.284883        -2.103589
 H         4.256008        -1.574396         0.370994
