19
Iteration:   546
 C         0.018311        -0.252996        -0.082463
 C         1.502101         0.038381         0.052976
 C         1.934521         0.669541         1.436817
 C         3.464623         0.572803         1.236987
 C         4.016878         0.577844        -0.193298
 C         3.155887         1.292119        -1.241340
 O         1.780737         1.073858        -0.959298
 C         3.536214        -0.683145         0.284808
 O         2.203438        -1.202838        -0.147090
 H        -0.234471        -1.155234         0.578006
 H        -0.325463         0.639543         0.385750
 H        -0.311793        -0.375277        -1.104803
 H         1.356029         1.650272         1.596361
 H         1.695729         0.000946         2.202850
 H         4.083792         0.895594         2.093076
 H         5.074658         0.715310        -0.391570
 H         3.411403         2.336817        -1.109119
 H         3.528908         0.919123        -2.242570
 H         4.235448        -1.514405         0.309866
