19
Iteration:  2346charge 0 multiplicity 1
 C         0.130951        -0.319192        -0.129556
 C         1.538882         0.158850         0.104333
 C         2.000142         0.710461         1.489333
 C         3.478098         0.300782         1.311914
 C         3.949823         0.640513        -0.112187
 C         3.111731         1.209358        -1.318755
 O         1.665995         1.145120        -0.957747
 C         3.581873        -0.753376         0.309561
 O         2.209503        -1.008087        -0.241918
 H        -0.201353        -0.978085         0.625855
 H        -0.603784         0.459718         0.016623
 H        -0.018449        -0.807061        -1.163108
 H         1.888614         1.798153         1.463888
 H         1.439312         0.298698         2.285260
 H         4.085495         0.427942         2.139827
 H         5.023763         0.758463        -0.113076
 H         3.292139         2.294662        -1.571359
 H         3.198711         0.481450        -2.088321
 H         4.192957        -1.660372         0.294453
