19
Iteration:  3032charge 0 multiplicity 1
 C        -0.007718        -0.361028        -0.136074
 C         1.389470         0.125491         0.040129
 C         2.053584         0.656685         1.401775
 C         3.507278         0.368229         1.221513
 C         4.011840         0.640042        -0.140860
 C         3.195395         1.521779        -1.047775
 O         1.802896         0.984149        -1.084376
 C         3.500168        -0.796700         0.290097
 O         2.195461        -1.052068        -0.139984
 H        -0.410956        -0.817442         0.786854
 H        -0.746487         0.481112        -0.115614
 H        -0.422203        -0.971555        -1.007519
 H         1.804033         1.769105         1.456657
 H         1.601308         0.029180         2.154858
 H         4.113269         0.268717         2.139280
 H         5.148735         0.651529        -0.247558
 H         3.093205         2.590122        -0.630902
 H         3.579912         1.415304        -2.111175
 H         4.272316        -1.557057         0.165036
