19
Iteration:  2949charge 0 multiplicity 1
 C         0.033441        -0.355436        -0.122987
 C         1.481060         0.159421         0.038746
 C         1.946038         0.569450         1.452191
 C         3.398642         0.365393         1.305781
 C         4.004017         0.654796        -0.140865
 C         3.153438         1.155020        -1.260732
 O         1.787442         1.244211        -0.904257
 C         3.554932        -0.737466         0.283822
 O         2.290646        -0.972088        -0.261671
 H         0.030486        -1.190532         0.524709
 H        -0.531861         0.435841         0.455896
 H        -0.263110        -0.519105        -1.207100
 H         1.470352         1.606425         1.588589
 H         1.369210        -0.103552         2.170215
 H         3.981537         0.477502         2.222813
 H         5.036898         0.928511        -0.108422
 H         3.470003         2.251434        -1.444629
 H         3.224720         0.425112        -2.132938
 H         3.914103        -1.759205         0.461331
