19
Iteration:  4506charge 0 multiplicity 1
 C        -0.022484        -0.149599        -0.115212
 C         1.462572         0.094381         0.116346
 C         1.979326         0.568714         1.445169
 C         3.463218         0.299179         1.331692
 C         3.943292         0.663859        -0.061294
 C         3.150207         1.432243        -1.133803
 O         1.749534         0.921211        -1.066174
 C         3.614013        -0.711278         0.178153
 O         2.277537        -1.069026        -0.235680
 H        -0.375577        -1.053475         0.283890
 H        -0.537510         0.762090         0.315916
 H        -0.167315        -0.235619        -1.262480
 H         1.755803         1.632566         1.497869
 H         1.405184        -0.005265         2.275709
 H         4.160492         0.606330         2.134959
 H         5.055863         0.809927        -0.030043
 H         3.019164         2.528153        -1.102207
 H         3.557433         1.074438        -2.124803
 H         4.417256        -1.504328         0.255334
