19
Iteration:   277charge 0 multiplicity 1
 C         0.033469        -0.342741         0.084199
 C         1.420853         0.092047         0.012257
 C         1.880115         0.639592         1.343209
 C         3.375871         0.482026         1.263718
 C         4.090437         0.579354        -0.139647
 C         3.222869         1.249310        -1.214573
 O         1.776771         1.140629        -1.004630
 C         3.567764        -0.721010         0.283605
 O         2.213189        -1.004137        -0.227733
 H         0.031937        -0.874117         1.029520
 H        -0.511788         0.559628        -0.041917
 H        -0.031338        -0.980498        -0.774082
 H         1.467799         1.558912         1.642943
 H         1.410160        -0.222515         2.002952
 H         4.034394         0.670253         2.098230
 H         5.156467         0.699960        -0.127797
 H         3.484848         2.283571        -1.338559
 H         3.598589         0.646580        -2.091738
 H         4.224106        -1.631209         0.270166
