19
Iteration:  1532charge 0 multiplicity 1
 C        -0.042372        -0.319209        -0.062409
 C         1.440990         0.100393         0.037059
 C         2.028726         0.702884         1.443856
 C         3.511386         0.418610         1.258471
 C         4.005248         0.641380        -0.080303
 C         3.138589         1.258340        -1.219749
 O         1.692411         1.085886        -1.007921
 C         3.562034        -0.752492         0.227289
 O         2.290182        -1.056434        -0.166694
 H        -0.216096        -1.085667         0.689249
 H        -0.744297         0.574254        -0.009004
 H        -0.138197        -0.708071        -1.047029
 H         1.747755         1.835631         1.388291
 H         1.446001         0.195776         2.199104
 H         4.258533         0.289356         2.100067
 H         5.061512         0.854103        -0.349561
 H         3.168135         2.335076        -1.255939
 H         3.570695         0.864888        -2.128102
 H         4.193853        -1.595622         0.506260
