19
Iteration:  1659charge 0 multiplicity 1
 C         0.027703        -0.271687         0.038499
 C         1.466313         0.078257        -0.014788
 C         1.933962         0.770677         1.336183
 C         3.455798         0.426000         1.209551
 C         4.030161         0.567344        -0.183486
 C         3.117486         1.468621        -1.026613
 O         1.777137         0.950399        -1.114139
 C         3.551365        -0.784578         0.271506
 O         2.241554        -1.180266        -0.153509
 H        -0.247303        -0.614095         1.022158
 H        -0.401131         0.802701         0.023130
 H        -0.335789        -0.980337        -0.752880
 H         1.868576         1.829902         1.366032
 H         1.382153         0.361184         2.192853
 H         4.368957         0.501827         1.873237
 H         5.098721         0.794826        -0.348146
 H         3.109437         2.469065        -0.511332
 H         3.415344         1.687331        -2.050724
 H         4.252499        -1.615960         0.438327
