19
Iteration:  1964
 C         0.013482        -0.300325        -0.145230
 C         1.445146         0.029398         0.050511
 C         1.991142         0.601490         1.428161
 C         3.470422         0.460741         1.223114
 C         3.961724         0.586225        -0.231183
 C         3.127635         1.211702        -1.377836
 O         1.759902         1.335265        -0.782125
 C         3.584148        -0.749758         0.344316
 O         2.243203        -1.116909        -0.116749
 H        -0.401172        -1.011994         0.642131
 H        -0.572715         0.635786        -0.079273
 H        -0.008109        -0.794794        -1.081995
 H         1.618969         1.617449         1.561146
 H         1.576099        -0.054992         2.308006
 H         4.203737         0.696737         1.940937
 H         5.017541         0.868165        -0.285186
 H         3.536521         2.210116        -1.582941
 H         3.379504         0.530555        -2.332455
 H         4.278480        -1.628296         0.348148
