19
Iteration:  1569
 C        -0.037501        -0.280652        -0.093584
 C         1.437956         0.152650         0.036846
 C         1.883930         0.502488         1.412250
 C         3.478074         0.573091         1.209208
 C         3.977068         0.621999        -0.184202
 C         3.088938         1.134493        -1.344249
 O         1.805497         1.257871        -0.861818
 C         3.612767        -0.735085         0.318049
 O         2.354987        -1.112289        -0.168044
 H        -0.258444        -1.094035         0.675582
 H        -0.522336         0.572858         0.335993
 H        -0.484507        -0.618605        -1.122610
 H         1.602489         1.480125         1.715406
 H         1.587236        -0.183475         2.217642
 H         4.024770         0.574143         2.103295
 H         5.039481         0.753790        -0.054977
 H         3.469303         2.183629        -1.536441
 H         3.223473         0.541664        -2.222785
 H         4.266077        -1.529457         0.662298
