19
Iteration:  3711charge 0 multiplicity 1
 C         0.009933        -0.218836        -0.091174
 C         1.484066         0.100103        -0.019309
 C         1.895850         0.631901         1.377579
 C         3.461254         0.341288         1.269680
 C         4.045323         0.615070        -0.116429
 C         3.135595         1.390263        -1.088361
 O         1.748950         1.068667        -0.981087
 C         3.595742        -0.778687         0.275971
 O         2.256102        -1.098337        -0.216947
 H        -0.406355        -0.781064         0.645576
 H        -0.474083         0.738717        -0.240947
 H        -0.244677        -0.796037        -1.014311
 H         1.605013         1.657291         1.325004
 H         1.531485         0.116337         2.218504
 H         4.005339         0.276442         2.211181
 H         5.150984         0.865260        -0.232160
 H         3.281174         2.408783        -0.856480
 H         3.382805         1.126728        -2.118405
 H         4.360355        -1.485990         0.482520
