19
Iteration:   987
 C        -0.069238        -0.227215        -0.049989
 C         1.448717         0.128830        -0.001010
 C         2.016419         0.593653         1.393701
 C         3.535730         0.376886         1.289130
 C         3.918738         0.694391        -0.115132
 C         3.152796         1.228409        -1.214731
 O         1.763260         1.072881        -1.031776
 C         3.635189        -0.695762         0.256328
 O         2.214444        -1.057288        -0.132108
 H        -0.243482        -0.871486         0.850690
 H        -0.737284         0.557035        -0.049320
 H        -0.157644        -0.871118        -0.903357
 H         1.799832         1.747905         1.604240
 H         1.502486        -0.051057         2.160872
 H         4.319810         0.472052         2.031704
 H         5.018217         0.772838        -0.298382
 H         3.186885         2.329235        -1.302778
 H         3.608478         0.744116        -2.025959
 H         4.202659        -1.637094         0.402434
