19
Iteration:   693
 C        -0.056999        -0.267586        -0.207332
 C         1.425256         0.071015         0.044682
 C         2.018279         0.623803         1.403287
 C         3.543400         0.486351         1.227712
 C         4.053193         0.637945        -0.233009
 C         3.117393         1.246688        -1.273571
 O         1.758908         1.118641        -0.908403
 C         3.566042        -0.694788         0.383128
 O         2.210344        -1.111045        -0.054471
 H        -0.190593        -0.961546         0.672888
 H        -0.641709         0.740724        -0.018116
 H        -0.203470        -0.710174        -1.222009
 H         1.554701         1.496522         1.635066
 H         1.768582        -0.031578         2.273233
 H         4.170475         0.531075         2.121418
 H         5.110652         0.678837        -0.438894
 H         3.336244         2.360551        -1.424078
 H         3.247118         0.813418        -2.244785
 H         4.145943        -1.648935         0.467606
