19
Iteration:  4173charge 0 multiplicity 1
 C        -0.020044        -0.233235        -0.248421
 C         1.460151         0.004652         0.107257
 C         1.927096         0.607522         1.443185
 C         3.373194         0.456863         1.241163
 C         4.039320         0.705221        -0.054799
 C         3.102125         1.121070        -1.210337
 O         1.768200         1.173715        -0.809528
 C         3.590918        -0.774184         0.350620
 O         2.352854        -1.040885        -0.358991
 H        -0.498325        -0.934919         0.317260
 H        -0.439208         0.737159         0.015871
 H        -0.195257        -0.276362        -1.320146
 H         1.630177         1.620306         1.474558
 H         1.617752         0.096708         2.350439
 H         4.150930         0.564438         1.987022
 H         5.011989         1.011506         0.000959
 H         3.408404         2.198093        -1.698612
 H         3.162415         0.395532        -1.993150
 H         4.348831        -1.563332         0.570966
