19
Iteration:  1471charge 0 multiplicity 1
 C        -0.091923        -0.233001         0.024387
 C         1.483706         0.183294        -0.027375
 C         2.004828         0.594707         1.316781
 C         3.480890         0.484925         1.218173
 C         4.092212         0.700463        -0.170540
 C         3.139652         1.567963        -1.065881
 O         1.852203         0.817271        -1.177204
 C         3.524899        -0.825660         0.252524
 O         2.204638        -1.136933        -0.026270
 H        -0.379974        -0.833150         0.990003
 H        -0.832444         0.562598         0.148001
 H        -0.435978        -0.880388        -0.856150
 H         1.823005         1.590227         1.563459
 H         1.636910        -0.020553         2.162887
 H         4.081537         0.609966         2.143040
 H         5.151494         0.385907        -0.437852
 H         2.731131         2.428190        -0.492709
 H         3.425847         1.973534        -2.108226
 H         4.090979        -1.752920         0.108020
