19
Iteration:  2335
 C         0.057713        -0.346775        -0.084262
 C         1.423428         0.220615         0.082713
 C         1.987696         0.729350         1.454576
 C         3.513416         0.357520         1.320215
 C         3.955572         0.617874        -0.132195
 C         3.139387         1.244044        -1.237680
 O         1.741512         1.111887        -1.001865
 C         3.505966        -0.775656         0.211665
 O         2.236684        -1.059426        -0.157597
 H         0.075850        -1.269614         0.410597
 H        -0.740610         0.347566         0.106918
 H         0.051606        -0.625824        -1.205686
 H         1.812258         1.785479         1.661987
 H         1.587272         0.148372         2.244782
 H         4.320648         0.492940         1.960951
 H         4.993312         0.848779        -0.317095
 H         3.516442         2.302413        -1.340524
 H         3.416920         0.868822        -2.199075
 H         4.115918        -1.669463         0.401029
