19
Iteration:  4025charge 0 multiplicity 1
 C        -0.053276        -0.150103        -0.166401
 C         1.483435         0.049785        -0.001157
 C         1.965621         0.623023         1.363700
 C         3.497045         0.303836         1.315805
 C         3.958799         0.690605        -0.125513
 C         3.131631         1.453801        -1.018836
 O         1.783800         0.975885        -1.044261
 C         3.599997        -0.733651         0.234283
 O         2.279082        -1.184340        -0.149113
 H        -0.537148        -0.539948         0.706604
 H        -0.513727         0.882377        -0.106999
 H        -0.453221        -0.659563        -1.151783
 H         1.712586         1.737350         1.451241
 H         1.608429         0.142648         2.268348
 H         4.141619         0.455609         2.175425
 H         4.972524         0.732391        -0.121183
 H         3.019208         2.634513        -0.862014
 H         3.516893         1.262662        -2.075619
 H         4.337297        -1.544879         0.134880
