19
Iteration:  1336charge 0 multiplicity 1
 C        -0.060216        -0.193785        -0.097387
 C         1.443499         0.009750         0.084017
 C         2.033927         0.610415         1.291666
 C         3.482217         0.435954         1.217856
 C         4.040382         0.690848        -0.107718
 C         3.109274         1.243502        -1.183006
 O         1.660815         1.115831        -0.916848
 C         3.634614        -0.708047         0.312825
 O         2.294786        -1.148628        -0.205035
 H        -0.382643        -0.782654         0.757570
 H        -0.549334         0.841019        -0.180812
 H        -0.183593        -0.762134        -1.051377
 H         1.591659         1.661115         1.408019
 H         1.736496         0.190702         2.212020
 H         4.042590         0.505743         2.128004
 H         5.109112         0.825183        -0.202994
 H         3.322617         2.372754        -1.099599
 H         3.443736         0.901010        -2.197317
 H         4.179843        -1.666448         0.507092
