19
Iteration:  2344charge 0 multiplicity 1
 C         0.126076        -0.322840        -0.135083
 C         1.524430         0.178662         0.114998
 C         1.987881         0.723487         1.482808
 C         3.496825         0.300244         1.312111
 C         3.938833         0.637292        -0.104555
 C         3.120699         1.226991        -1.309685
 O         1.675890         1.134409        -0.969061
 C         3.570028        -0.748091         0.287504
 O         2.206715        -1.022180        -0.231454
 H        -0.153767        -1.088646         0.576974
 H        -0.605399         0.406141         0.041746
 H        -0.016091        -0.769557        -1.080732
 H         1.886996         1.794186         1.511652
 H         1.456797         0.250205         2.296589
 H         4.183341         0.472312         2.121014
 H         5.002994         0.762359        -0.148348
 H         3.371153         2.285072        -1.506723
 H         3.220058         0.485556        -2.173455
 H         4.156981        -1.706444         0.342800
