19
Iteration:  1819
 C        -0.064328        -0.213925        -0.088742
 C         1.480021         0.045893         0.066905
 C         1.966787         0.619695         1.411535
 C         3.454669         0.510390         1.289557
 C         4.070851         0.594526        -0.273411
 C         3.101344         1.313184        -1.276411
 O         1.760630         1.089950        -0.877181
 C         3.619388        -0.707499         0.291427
 O         2.246755        -1.188465        -0.170819
 H        -0.426651        -0.546128         0.818555
 H        -0.564686         0.719805        -0.332368
 H        -0.344517        -0.812126        -1.005109
 H         1.526950         1.613714         1.661372
 H         1.760634         0.023148         2.369860
 H         4.121044         0.581307         2.240347
 H         5.159413         0.713132        -0.476156
 H         3.455960         2.354793        -1.217838
 H         3.144581         1.076418        -2.414370
 H         4.310723        -1.471937         0.624108
