19
Iteration:  4615charge 0 multiplicity 1
 C        -0.036281        -0.174758        -0.054384
 C         1.484696         0.091755         0.020633
 C         1.923652         0.531272         1.449117
 C         3.412390         0.380378         1.286536
 C         4.031622         0.657842        -0.114026
 C         3.188561         1.423896        -1.154870
 O         1.743047         1.039813        -0.983291
 C         3.572674        -0.769876         0.203090
 O         2.307577        -1.120512        -0.234153
 H        -0.351625        -0.813393         0.706524
 H        -0.601623         0.736699        -0.145830
 H        -0.208541        -0.600594        -1.083947
 H         1.655525         1.507314         1.666852
 H         1.413125        -0.046461         2.225048
 H         4.046844         0.488381         2.230970
 H         5.070952         0.843943        -0.190505
 H         3.190537         2.506729        -1.087151
 H         3.618896         1.249734        -2.140717
 H         4.235719        -1.643781         0.212039
