19
Iteration:  2918
 C        -0.007257        -0.297683        -0.156052
 C         1.471773         0.084467         0.062943
 C         1.961369         0.690660         1.305902
 C         3.466935         0.398122         1.260508
 C         4.057279         0.598531        -0.126368
 C         3.142299         1.357267        -1.084592
 O         1.720118         1.100466        -0.909404
 C         3.530390        -0.761101         0.245797
 O         2.290792        -1.117214        -0.205972
 H        -0.292712        -1.170976         0.369168
 H        -0.567853         0.538564         0.347210
 H        -0.369678        -0.296900        -1.205000
 H         1.746963         1.771689         1.214847
 H         1.620250         0.160587         2.262177
 H         4.023449         0.525214         2.200381
 H         5.115786         0.782358        -0.292545
 H         3.451771         2.421617        -0.935932
 H         3.333464         1.018695        -2.101373
 H         4.096901        -1.700351         0.438936
