19
Iteration:  4031
 C        -0.024217        -0.112316        -0.163487
 C         1.487581         0.046344         0.046896
 C         1.963825         0.641601         1.396919
 C         3.485663         0.326196         1.286515
 C         3.967972         0.713503        -0.089990
 C         3.146087         1.488955        -1.015151
 O         1.773257         0.909456        -1.094274
 C         3.577014        -0.762039         0.188768
 O         2.261383        -1.193153        -0.148302
 H        -0.438539        -0.575838         0.764225
 H        -0.507005         0.850150        -0.238054
 H        -0.350950        -0.617395        -1.028320
 H         1.673113         1.658680         1.513112
 H         1.466497         0.080288         2.222292
 H         4.111478         0.440014         2.193734
 H         5.115041         0.873673        -0.146406
 H         3.125670         2.481518        -0.697012
 H         3.471525         1.413012        -2.032985
 H         4.339589        -1.557152         0.070317
