19
Iteration:  3022charge 0 multiplicity 1
 C        -0.058288        -0.286034        -0.119953
 C         1.474122         0.088331        -0.010715
 C         1.976507         0.658579         1.419736
 C         3.491496         0.411095         1.235237
 C         3.990368         0.614700        -0.148508
 C         3.166566         1.443214        -1.034489
 O         1.774498         1.035127        -1.003046
 C         3.544046        -0.728124         0.232663
 O         2.223063        -1.155251        -0.178739
 H        -0.313650        -0.871675         0.765903
 H        -0.520990         0.694769        -0.327461
 H        -0.027987        -0.949824        -1.062511
 H         1.647212         1.737579         1.641739
 H         1.708177         0.141738         2.316346
 H         4.256304         0.449445         2.021460
 H         5.103043         0.667427        -0.198470
 H         3.420286         2.531543        -0.893189
 H         3.398754         1.327786        -2.127019
 H         4.151529        -1.604324         0.430735
