19
Iteration:  1671charge 0 multiplicity 1
 C        -0.042682        -0.188857         0.046094
 C         1.485505         0.043803         0.119711
 C         2.057409         0.779616         1.338513
 C         3.502068         0.357503         1.291213
 C         3.997515         0.638781        -0.191323
 C         3.064844         1.514312        -1.023458
 O         1.788421         0.839906        -1.200191
 C         3.545474        -0.789648         0.234024
 O         2.252623        -1.151644        -0.193562
 H        -0.438849        -0.745143         0.895017
 H        -0.658926         0.755262        -0.226002
 H        -0.178307        -0.774463        -0.859659
 H         1.687637         1.726766         0.995608
 H         1.624913         0.568865         2.299341
 H         3.984691         0.446259         2.340565
 H         5.100855         0.827889        -0.239307
 H         2.891663         2.490948        -0.514604
 H         3.583751         1.664945        -1.988219
 H         4.233359        -1.627367         0.360004
