19
Iteration:  3142charge 0 multiplicity 1
 C         0.013398        -0.360138        -0.188228
 C         1.438190         0.103283         0.040673
 C         1.954684         0.627594         1.449524
 C         3.412767         0.341650         1.261386
 C         4.079750         0.609757        -0.080248
 C         3.109978         1.253187        -1.189369
 O         1.748879         1.234812        -0.872685
 C         3.567102        -0.735177         0.242159
 O         2.276647        -1.035775        -0.223090
 H        -0.147181        -1.201615         0.505297
 H        -0.575780         0.605914         0.014348
 H        -0.068434        -0.591275        -1.350143
 H         1.613553         1.741012         1.619955
 H         1.529774        -0.029326         2.216493
 H         4.152809         0.471724         2.004715
 H         5.101119         0.875978        -0.215755
 H         3.368785         2.293065        -1.423337
 H         3.217977         0.670815        -2.179153
 H         4.292806        -1.469044         0.463527
