19
Iteration:  4836charge 0 multiplicity 1
 C        -0.066356        -0.245032        -0.068611
 C         1.422409         0.106320        -0.031651
 C         2.033377         0.610507         1.369231
 C         3.547343         0.278547         1.336131
 C         4.040906         0.702705        -0.011375
 C         3.092803         1.468545        -1.071388
 O         1.782441         0.995057        -1.072364
 C         3.614655        -0.770550         0.151713
 O         2.169777        -1.100521        -0.197156
 H        -0.295901        -1.146468         0.631642
 H        -0.513531         0.671172         0.334761
 H        -0.328308        -0.469382        -1.020369
 H         1.958491         1.681183         1.355945
 H         1.383882         0.058443         2.133868
 H         4.085013         0.417007         2.257531
 H         5.198134         1.028140        -0.148727
 H         3.069296         2.656743        -0.973350
 H         3.598669         1.286289        -2.063125
 H         4.191269        -1.686974         0.259444
