19
Iteration:  4405
 C         0.004820        -0.136679        -0.169259
 C         1.497367         0.010386        -0.003556
 C         1.918648         0.530640         1.469763
 C         3.439916         0.410591         1.275550
 C         3.959232         0.616995        -0.168858
 C         3.124406         1.397900        -1.150743
 O         1.747376         1.079073        -0.910646
 C         3.610838        -0.715356         0.240731
 O         2.329191        -1.163469        -0.182985
 H        -0.500345        -0.682360         0.689360
 H        -0.380142         0.839893        -0.436433
 H        -0.269410        -0.695757        -1.034425
 H         1.680905         1.655658         1.629109
 H         1.460354         0.015241         2.281578
 H         4.019435         0.396919         2.189846
 H         5.134063         0.996372        -0.336233
 H         3.234559         2.454065        -1.189976
 H         3.256832         1.091771        -2.244018
 H         4.284940        -1.474367         0.576785
