19
Iteration:  1690charge 0 multiplicity 1
 C        -0.058724        -0.183346        -0.058996
 C         1.468522         0.114333        -0.037554
 C         2.073968         0.758898         1.296536
 C         3.558270         0.290234         1.294695
 C         4.023151         0.747150        -0.111133
 C         2.993364         1.448052        -0.998898
 O         1.779930         0.756296        -1.145862
 C         3.550566        -0.723398         0.188299
 O         2.209983        -1.136596        -0.035936
 H        -0.331788        -0.760676         0.808622
 H        -0.357790         0.922660         0.069061
 H        -0.403031        -0.654159        -1.075661
 H         2.124761         1.850188         1.372362
 H         1.499216         0.310376         2.162224
 H         4.367659         0.244063         2.084296
 H         5.087588         0.809542        -0.366052
 H         2.810958         2.502527        -0.612606
 H         3.494220         1.514250        -1.930771
 H         4.362732        -1.465368         0.068445
