19
Iteration:   966
 C        -0.009427        -0.312626        -0.010431
 C         1.441407         0.142057         0.110429
 C         1.932578         0.615857         1.461753
 C         3.382548         0.526993         1.208445
 C         4.101427         0.528543        -0.198169
 C         3.216225         1.249061        -1.303780
 O         1.764824         1.140387        -0.966435
 C         3.535151        -0.722606         0.351465
 O         2.263850        -1.044480        -0.256750
 H        -0.226993        -1.030509         0.854582
 H        -0.526503         0.570139         0.101553
 H        -0.171625        -0.878431        -0.941328
 H         1.456695         1.687878         1.695095
 H         1.731331        -0.198833         2.248432
 H         4.054996         0.421963         2.055136
 H         5.205952         0.776122        -0.078358
 H         3.238154         2.327464        -1.389988
 H         3.308602         0.793008        -2.267933
 H         4.078372        -1.694311         0.402429
