19
Iteration:   413
 C        -0.012731        -0.246163        -0.059332
 C         1.516649         0.066111         0.034421
 C         1.996641         0.796528         1.311580
 C         3.475272         0.326372         1.330523
 C         3.946476         0.653371        -0.124259
 C         3.108769         1.332123        -1.038939
 O         1.735910         0.916138        -1.139965
 C         3.636551        -0.711028         0.201649
 O         2.245889        -1.088103        -0.107222
 H        -0.469826        -0.914713         0.725339
 H        -0.526597         0.742134         0.188389
 H        -0.450832        -0.548461        -1.035792
 H         2.018472         1.901196         1.329418
 H         1.541309         0.484837         2.196983
 H         4.076490         0.306368         2.227556
 H         5.021821         0.838015        -0.279824
 H         3.054183         2.390464        -0.828361
 H         3.561558         1.151448        -1.974394
 H         4.259535        -1.589261         0.083159
