19
Iteration:  4093
 C         0.041394        -0.246650        -0.141449
 C         1.448819         0.027249         0.049635
 C         1.984768         0.774299         1.252759
 C         3.405298         0.282047         1.247306
 C         4.048432         0.606182        -0.118367
 C         3.131813         1.484883        -0.998051
 O         1.767711         1.008144        -1.029753
 C         3.526889        -0.801986         0.293094
 O         2.242902        -1.128894        -0.170669
 H        -0.293648        -0.980931         0.730008
 H        -0.476426         0.694747         0.122931
 H        -0.068703        -0.775408        -1.108425
 H         1.881650         1.892323         1.122339
 H         1.430551         0.417142         2.185892
 H         4.028932         0.258853         2.133951
 H         5.183589         0.955430        -0.322380
 H         3.196434         2.617645        -0.523985
 H         3.520407         1.588044        -2.046312
 H         4.181793        -1.630948         0.438768
