19
Iteration:  2737
 C        -0.024474        -0.181390        -0.152286
 C         1.475393         0.042463         0.076615
 C         1.931577         0.535060         1.474757
 C         3.411107         0.382473         1.340418
 C         3.928313         0.671595        -0.126542
 C         3.191296         1.234600        -1.346687
 O         1.799180         1.149588        -0.967658
 C         3.602655        -0.703011         0.275004
 O         2.302872        -1.038690        -0.174127
 H        -0.255721        -1.245869         0.148805
 H        -0.644725         0.419740         0.539482
 H        -0.354331        -0.100807        -1.159601
 H         1.444854         1.500506         1.751077
 H         1.692613        -0.164220         2.295127
 H         4.178827         0.572804         2.130113
 H         4.939700         1.014293         0.054201
 H         3.388862         2.266408        -1.568950
 H         3.418335         0.485314        -2.108045
 H         4.177281        -1.669594         0.239930
