19
Iteration:  1988charge 0 multiplicity 1
 C        -0.002130        -0.342815        -0.075267
 C         1.427836         0.124822         0.014895
 C         1.955524         0.670334         1.395615
 C         3.418761         0.462508         1.178130
 C         4.099600         0.532534        -0.210284
 C         3.051537         1.177142        -1.220425
 O         1.788418         1.279193        -0.761466
 C         3.572024        -0.749705         0.293901
 O         2.306390        -1.061367        -0.243057
 H        -0.389732        -0.743109         0.893588
 H        -0.606991         0.501095        -0.287069
 H        -0.007616        -1.149470        -0.872640
 H         1.530860         1.726995         1.471043
 H         1.556399         0.076243         2.287134
 H         4.114763         0.593917         2.051913
 H         5.151490         0.698262        -0.284107
 H         3.462026         2.153001        -1.607607
 H         3.071117         0.404431        -2.119998
 H         4.131531        -1.605429         0.573809
