19
Iteration:  3925charge 0 multiplicity 1
 C        -0.019861        -0.133471        -0.162704
 C         1.508030         0.018151         0.035010
 C         1.917158         0.538445         1.494204
 C         3.425419         0.424437         1.337331
 C         4.058322         0.665992        -0.121335
 C         3.110939         1.308399        -1.248346
 O         1.770208         1.035846        -0.921548
 C         3.559815        -0.728817         0.340580
 O         2.309689        -1.083727        -0.297699
 H        -0.573644        -0.934726         0.350880
 H        -0.421715         0.847277         0.136326
 H        -0.147524        -0.375730        -1.245225
 H         1.717359         1.606379         1.618133
 H         1.392886        -0.098513         2.209368
 H         4.063868         0.575819         2.235828
 H         5.037607         0.752627        -0.092002
 H         3.285311         2.446618        -1.339583
 H         3.201824         1.035019        -2.290242
 H         4.257612        -1.582643         0.377897
