19
Iteration:  3251
 C        -0.030514        -0.267075        -0.051603
 C         1.508960         0.061250        -0.028055
 C         1.966106         0.703431         1.278639
 C         3.445893         0.354565         1.276979
 C         3.990557         0.560895        -0.184580
 C         3.149923         1.566454        -0.903891
 O         1.802954         0.964758        -1.107785
 C         3.537094        -0.805953         0.219829
 O         2.230483        -1.133621        -0.144675
 H        -0.371238        -1.109747         0.580486
 H        -0.570099         0.643170         0.320222
 H        -0.306277        -0.559177        -1.143926
 H         1.852648         1.890009         1.311715
 H         1.592346         0.323391         2.248378
 H         4.106164         0.435693         2.132231
 H         4.976070         0.868368        -0.428294
 H         3.177827         2.485678        -0.351138
 H         3.656195         1.786455        -1.839860
 H         4.339758        -1.529759         0.462182
