19
Iteration:   290
 C         0.022360        -0.280450        -0.032045
 C         1.484314         0.176026        -0.028967
 C         1.882759         0.593280         1.354856
 C         3.471201         0.472168         1.232088
 C         4.081893         0.616783        -0.138424
 C         3.173385         1.224646        -1.220504
 O         1.754103         1.109222        -0.962559
 C         3.534359        -0.705646         0.313796
 O         2.282996        -1.063345        -0.180441
 H        -0.257772        -0.769726         0.907531
 H        -0.821994         0.500084         0.011325
 H        -0.378944        -1.040399        -0.789944
 H         1.444238         1.542205         1.541796
 H         1.706936        -0.105910         2.257643
 H         3.960493         0.246162         2.192029
 H         5.148798         0.750459        -0.336336
 H         3.316971         2.327858        -1.263845
 H         3.207536         0.860948        -2.211379
 H         4.088859        -1.571550         0.753278
