19
Iteration:  3470
 C         0.039140        -0.132936        -0.030634
 C         1.510861         0.035842         0.026990
 C         1.948817         0.757217         1.216618
 C         3.465538         0.345817         1.226404
 C         4.026414         0.599060        -0.093958
 C         3.049133         1.519049        -0.877885
 O         1.786806         0.861780        -1.116945
 C         3.558330        -0.786591         0.244680
 O         2.264864        -1.159201        -0.243765
 H        -0.267916        -1.013024         0.626702
 H        -0.424116         0.776961         0.333814
 H        -0.296775        -0.253744        -1.018009
 H         1.696343         1.879252         1.223260
 H         1.443669         0.320177         2.120672
 H         3.939628         0.409889         2.183283
 H         5.028343         0.567937        -0.054979
 H         2.872712         2.366357        -0.343142
 H         3.555823         1.864041        -1.759899
 H         4.256227        -1.596052         0.448605
