19
Iteration:  1173charge 0 multiplicity 1
 C        -0.018328        -0.294871        -0.091319
 C         1.431301         0.034179         0.044542
 C         1.994783         0.743548         1.351716
 C         3.477135         0.394598         1.238287
 C         3.993656         0.512646        -0.136588
 C         3.100781         1.260438        -1.131734
 O         1.653411         1.190432        -0.947215
 C         3.719979        -0.783981         0.343867
 O         2.320641        -1.046204        -0.249566
 H        -0.488786        -0.800982         0.747041
 H        -0.538282         0.629254        -0.063635
 H        -0.354341        -0.829245        -1.018401
 H         1.672095         1.851601         1.302758
 H         1.619000         0.393472         2.256375
 H         4.005160         0.518791         2.200135
 H         5.074817         0.823948        -0.161809
 H         3.334704         2.347270        -1.243907
 H         3.260224         0.707426        -2.137174
 H         4.247002        -1.718891         0.390328
