19
Iteration:  4167charge 0 multiplicity 1
 C        -0.012640        -0.217166        -0.200292
 C         1.499920         0.011373         0.057870
 C         1.897782         0.603864         1.514983
 C         3.344729         0.466402         1.208448
 C         3.986315         0.701540        -0.074532
 C         3.120966         1.105019        -1.244901
 O         1.785575         1.186030        -0.788170
 C         3.615454        -0.763724         0.364701
 O         2.362746        -1.063837        -0.385353
 H        -0.636239        -0.994680         0.407868
 H        -0.523539         0.736312         0.055568
 H         0.017225        -0.141714        -1.334185
 H         1.456771         1.657573         1.420086
 H         1.495066         0.039299         2.378505
 H         3.993865         0.610470         2.082064
 H         5.108549         0.998710        -0.040577
 H         3.549550         1.993728        -1.540304
 H         3.138047         0.347126        -2.092745
 H         4.406706        -1.459987         0.476816
