19
Iteration:  3799charge 0 multiplicity 1
 C        -0.054130        -0.161978        -0.154203
 C         1.443489         0.113192         0.055994
 C         1.924292         0.488681         1.418993
 C         3.427010         0.424790         1.275739
 C         4.051811         0.654754        -0.107990
 C         3.184382         1.278581        -1.194193
 O         1.736176         1.063332        -0.931224
 C         3.562548        -0.724166         0.280858
 O         2.331007        -1.068638        -0.199833
 H        -0.429820        -1.008114         0.271700
 H        -0.493929         0.825772         0.021384
 H        -0.088770        -0.131212        -1.300533
 H         1.478711         1.447102         1.694694
 H         1.613885        -0.241589         2.138447
 H         4.040034         0.521491         2.187640
 H         5.265697         0.863619        -0.200753
 H         3.020899         2.330392        -1.314586
 H         3.511027         0.694804        -2.138614
 H         4.340987        -1.476182         0.388307
