19
Iteration:  3517
 C         0.061538        -0.336179        -0.147607
 C         1.473217         0.178079         0.003173
 C         1.972583         0.627326         1.408543
 C         3.440842         0.331635         1.332260
 C         4.013406         0.632704        -0.142411
 C         3.201833         1.390002        -1.122283
 O         1.744567         1.094728        -1.019370
 C         3.506915        -0.742295         0.230983
 O         2.208765        -1.077567        -0.126656
 H        -0.251659        -0.970659         0.660741
 H        -0.653682         0.505187        -0.407738
 H         0.073738        -0.906329        -1.161062
 H         1.758198         1.655275         1.695676
 H         1.544224         0.008043         2.322213
 H         3.985934         0.442529         2.304971
 H         5.146936         0.824208        -0.126467
 H         3.537220         2.395475        -1.078212
 H         3.262459         1.130984        -2.221532
 H         4.102351        -1.703662         0.146132
