19
Iteration:   469charge 0 multiplicity 1
 C        -0.017291        -0.278525        -0.111728
 C         1.467553         0.105117         0.041734
 C         1.909164         0.652452         1.391290
 C         3.468859         0.426700         1.219062
 C         4.056712         0.603072        -0.188529
 C         3.160382         1.333150        -1.236510
 O         1.731547         1.092826        -0.912084
 C         3.595199        -0.736335         0.251972
 O         2.256461        -1.126882        -0.061216
 H        -0.347834        -0.798886         0.839684
 H        -0.591297         0.627728        -0.368485
 H        -0.052876        -0.828863        -1.050316
 H         1.640468         1.747375         1.440165
 H         1.461691         0.088774         2.144131
 H         4.068377         0.497630         2.141472
 H         5.087753         0.880240        -0.269997
 H         3.351000         2.385494        -1.337049
 H         3.372966         0.912362        -2.204851
 H         4.319631        -1.608057         0.386216
