19
Iteration:  4736charge 0 multiplicity 1
 C         0.022309        -0.168376        -0.072372
 C         1.501203         0.134603         0.044484
 C         1.978155         0.511535         1.476434
 C         3.420466         0.358641         1.317963
 C         3.976903         0.685773        -0.089857
 C         3.125949         1.278570        -1.187929
 O         1.722835         1.118349        -0.961770
 C         3.600744        -0.730690         0.233596
 O         2.282366        -1.088401        -0.300955
 H        -0.424139        -0.891244         0.560389
 H        -0.494407         0.745348        -0.201460
 H         0.058431        -0.575656        -1.068401
 H         1.561354         1.422726         1.744804
 H         1.515978        -0.261081         2.124288
 H         4.050715         0.576057         2.185676
 H         4.977896         0.901691        -0.318262
 H         3.422671         2.353411        -1.266529
 H         3.332672         0.680620        -2.070478
 H         4.212733        -1.640124         0.394540
