19
Iteration:  1429
 C         0.044800        -0.172389        -0.066740
 C         1.432446        -0.000634         0.088492
 C         1.984275         0.803209         1.337275
 C         3.506657         0.365725         1.267423
 C         3.991663         0.599382        -0.120056
 C         3.107743         1.401985        -1.152474
 O         1.687349         0.936487        -0.947451
 C         3.568362        -0.786866         0.252980
 O         2.317495        -1.107572        -0.223774
 H        -0.319641        -1.056837         0.533122
 H        -0.568865         0.671967         0.090797
 H        -0.130189        -0.583421        -1.098088
 H         1.563574         1.771867         1.215996
 H         1.420323         0.471853         2.288778
 H         4.158232         0.716294         2.087715
 H         5.100393         0.793138        -0.233484
 H         3.200121         2.460277        -0.973663
 H         3.329858         1.128216        -2.264717
 H         4.344008        -1.543018         0.361031
