19
Iteration:  1508charge 0 multiplicity 1
 C         0.021157        -0.250159        -0.051571
 C         1.439152         0.078468         0.051451
 C         2.054893         0.765589         1.294692
 C         3.505341         0.333104         1.280649
 C         4.033941         0.592448        -0.135214
 C         3.021931         1.456358        -1.099396
 O         1.673141         0.971814        -1.064689
 C         3.593148        -0.799067         0.285921
 O         2.280426        -1.153986        -0.138259
 H        -0.266746        -0.771097         0.819484
 H        -0.377290         0.783234        -0.119025
 H        -0.184575        -0.764394        -0.987938
 H         2.132361         1.867739         1.091046
 H         1.370755         0.581519         2.161861
 H         3.944922         0.497824         2.262469
 H         5.062960         0.838015        -0.234526
 H         2.913917         2.499535        -0.837693
 H         3.523872         1.433376        -2.094589
 H         4.391013        -1.558219         0.216021
