19
Iteration:  2553charge 0 multiplicity 1
 C        -0.010139        -0.359914        -0.135438
 C         1.462776         0.192117         0.054413
 C         1.935484         0.553934         1.431347
 C         3.466784         0.434009         1.274719
 C         4.006142         0.622922        -0.192820
 C         3.197664         1.192117        -1.257190
 O         1.783452         1.300817        -0.938075
 C         3.526328        -0.763769         0.333748
 O         2.246940        -1.034169        -0.186450
 H         0.056724        -1.373516         0.145878
 H        -0.707706         0.093511         0.583996
 H        -0.404537        -0.310854        -1.168578
 H         1.434784         1.493273         1.800767
 H         1.791572        -0.204630         2.212895
 H         4.135753         0.522339         2.203534
 H         5.127517         0.683563        -0.232477
 H         3.492631         2.177241        -1.528668
 H         3.222770         0.489271        -2.034858
 H         4.149405        -1.648675         0.452944
