19
Iteration:  1238
 C        -0.059252        -0.161684        -0.063956
 C         1.460413         0.105675         0.000914
 C         2.016675         0.630630         1.351198
 C         3.513752         0.400681         1.288593
 C         4.045860         0.647689        -0.146989
 C         3.094694         1.486546        -1.101323
 O         1.756466         0.878807        -1.137563
 C         3.565539        -0.755223         0.293096
 O         2.216381        -1.162032        -0.097015
 H        -0.001367        -1.045422         0.618030
 H        -0.615819         0.682244         0.389957
 H        -0.451773        -0.362976        -1.117351
 H         1.772177         1.735606         1.595673
 H         1.618010         0.097659         2.139549
 H         4.199150         0.427848         2.154577
 H         5.150787         0.853069        -0.270362
 H         3.033769         2.513609        -0.847395
 H         3.456556         1.465139        -2.197410
 H         4.423562        -1.471183         0.373515
