19
Iteration:   448
 C        -0.035260        -0.245694        -0.138815
 C         1.430461        -0.039571         0.059221
 C         2.014777         0.590433         1.451309
 C         3.492644         0.593188         1.161247
 C         3.960713         0.568894        -0.233322
 C         3.199458         1.429337        -1.189341
 O         1.814707         1.063957        -1.040035
 C         3.505281        -0.731240         0.350939
 O         2.204486        -1.170606        -0.048904
 H        -0.408792        -0.868633         0.749845
 H        -0.443062         0.777822        -0.178792
 H        -0.155537        -0.789333        -1.095880
 H         1.574795         1.542474         1.859060
 H         1.812878        -0.153961         2.111011
 H         4.094100         0.891612         2.040106
 H         4.973524         0.735198        -0.517505
 H         3.455095         2.427319        -0.839388
 H         3.530203         1.377421        -2.144035
 H         4.245636        -1.595435         0.452652
