19
Iteration:  3872
 C         0.003953        -0.300436        -0.050002
 C         1.497557         0.040712         0.031928
 C         1.979490         0.779975         1.361008
 C         3.466760         0.317045         1.239583
 C         4.013528         0.583289        -0.137984
 C         3.137724         1.554205        -0.929369
 O         1.808781         0.982286        -1.172843
 C         3.472344        -0.787814         0.271330
 O         2.229078        -1.114374        -0.202693
 H        -0.312930        -0.851066         0.800277
 H        -0.508123         0.639776        -0.319593
 H        -0.101080        -1.043403        -0.941172
 H         2.014672         1.932470         1.217117
 H         1.378984         0.522499         2.253912
 H         4.101487         0.070105         2.112081
 H         5.036519         0.616302        -0.290401
 H         3.177079         2.471619        -0.251844
 H         3.378732         1.717461        -1.941548
 H         4.178100        -1.585174         0.471731
