19
Iteration:  2211
 C        -0.028300        -0.323140        -0.125705
 C         1.505632         0.075386         0.060243
 C         2.022276         0.736559         1.381229
 C         3.490741         0.377291         1.239379
 C         4.036431         0.538353        -0.225708
 C         3.075214         1.293641        -1.210654
 O         1.678420         1.223137        -0.892801
 C         3.556666        -0.804249         0.345069
 O         2.290019        -1.101049        -0.194103
 H        -0.446286        -0.765787         0.785339
 H        -0.650447         0.531810        -0.371022
 H        -0.129251        -0.926538        -0.914433
 H         1.719047         1.756874         1.388762
 H         1.708759         0.287026         2.319741
 H         4.157270         0.705031         2.082512
 H         5.118316         0.685004        -0.404597
 H         3.388373         2.332424        -1.018591
 H         3.440690         0.978838        -2.205449
 H         4.098588        -1.635711         0.711353
