19
Iteration:   133charge 0 multiplicity 1
 C        -0.041663        -0.340363         0.033696
 C         1.487821         0.099008        -0.050780
 C         1.963040         0.775077         1.283035
 C         3.489792         0.384450         1.251512
 C         3.996871         0.610391        -0.125346
 C         3.144800         1.334248        -1.052253
 O         1.747351         1.022838        -1.063661
 C         3.592733        -0.768660         0.270987
 O         2.230661        -1.086116        -0.193530
 H        -0.173244        -0.821541         0.985726
 H        -0.586007         0.559803         0.061028
 H        -0.429036        -0.932421        -0.756390
 H         1.948485         1.871579         1.290277
 H         1.497085         0.436919         2.261530
 H         4.107801         0.584088         2.169523
 H         5.078267         0.909461        -0.101574
 H         3.288194         2.384815        -0.803461
 H         3.571254         1.168555        -2.076129
 H         4.251377        -1.656843         0.294482
