19
Iteration:   613charge 0 multiplicity 1
 C         0.015029        -0.306776         0.110283
 C         1.463423         0.087528        -0.059340
 C         1.965867         0.783755         1.258236
 C         3.410358         0.397202         1.179212
 C         4.023478         0.611694        -0.220137
 C         3.134638         1.465105        -1.028544
 O         1.879199         0.922954        -1.102396
 C         3.541984        -0.803828         0.293997
 O         2.184242        -1.110066        -0.110605
 H        -0.053606        -0.897949         1.026636
 H        -0.495201         0.655702         0.206021
 H        -0.306094        -0.849370        -0.825127
 H         1.785519         1.912211         1.302880
 H         1.563713         0.289005         2.071100
 H         4.039594         0.440409         2.071121
 H         5.128438         0.859724        -0.173688
 H         3.090009         2.480562        -0.553656
 H         3.333470         1.617170        -2.143388
 H         4.049079        -1.711910         0.560912
