19
Iteration:  1058
 C         0.041388        -0.309956         0.004954
 C         1.463170         0.183219        -0.045598
 C         1.998150         0.739717         1.371510
 C         3.504344         0.335514         1.233294
 C         4.035636         0.632466        -0.210888
 C         3.135712         1.507494        -1.086772
 O         1.821000         0.956048        -1.224616
 C         3.479222        -0.754206         0.258268
 O         2.149701        -1.149278         0.007999
 H         0.070425        -1.107962         0.749165
 H        -0.687901         0.482601         0.526845
 H        -0.315039        -0.746800        -0.951345
 H         1.768221         1.742358         1.482482
 H         1.490299         0.157778         2.185183
 H         4.090962         0.017039         2.133152
 H         5.105438         0.729054        -0.261427
 H         3.189869         2.423772        -0.577643
 H         3.507689         1.589158        -2.152651
 H         4.161531        -1.580805         0.572977
