19
Iteration:  1703
 C         0.026372        -0.140922        -0.058694
 C         1.468438         0.078226         0.044884
 C         2.000797         0.713471         1.395685
 C         3.560575         0.352274         1.208488
 C         3.988121         0.678960        -0.171819
 C         3.094279         1.508429        -1.047858
 O         1.776808         0.865081        -1.216454
 C         3.574177        -0.775394         0.187052
 O         2.213637        -1.216125         0.037027
 H        -0.310142        -0.915134         0.665911
 H        -0.690031         0.759664         0.192782
 H        -0.357125        -0.479704        -1.059023
 H         1.580851         1.694623         1.392159
 H         1.513969         0.186941         2.223607
 H         4.142748         0.456383         2.194649
 H         5.049003         1.019751        -0.339215
 H         2.865791         2.566725        -0.691699
 H         3.425105         1.619764        -2.076382
 H         4.190919        -1.660561         0.220748
