19
Iteration:   282
 C         0.037968        -0.325318         0.053542
 C         1.450428         0.142097        -0.003933
 C         1.843058         0.596150         1.321026
 C         3.408763         0.491207         1.257098
 C         4.110062         0.593725        -0.149489
 C         3.187229         1.230670        -1.201076
 O         1.765813         1.124340        -0.985600
 C         3.568154        -0.717636         0.286119
 O         2.222956        -1.015610        -0.204787
 H        -0.021688        -0.841694         1.033707
 H        -0.599701         0.656391        -0.005057
 H        -0.096845        -1.082912        -0.814356
 H         1.400554         1.609914         1.631690
 H         1.598659        -0.156506         2.028472
 H         4.046068         0.453056         2.176254
 H         5.231822         0.626555        -0.166550
 H         3.504310         2.308682        -1.365700
 H         3.461764         0.770434        -2.147195
 H         4.188901        -1.577748         0.460106
