19
Iteration:   891charge 0 multiplicity 1
 C        -0.040759        -0.177623        -0.008530
 C         1.488555         0.140941         0.035037
 C         1.964845         0.668244         1.418857
 C         3.440960         0.514016         1.224009
 C         3.982866         0.583282        -0.153331
 C         3.184198         1.351156        -1.234650
 O         1.755728         1.010197        -1.016333
 C         3.556672        -0.770525         0.297985
 O         2.280835        -1.198771        -0.172123
 H        -0.122813        -1.103524         0.676858
 H        -0.637024         0.665607         0.281798
 H        -0.239706        -0.479656        -1.075053
 H         1.593276         1.639497         1.647025
 H         1.669862        -0.031034         2.208210
 H         4.131919         0.584267         2.063029
 H         5.088690         0.764626        -0.248705
 H         3.295633         2.408457        -1.062736
 H         3.210017         1.069585        -2.338944
 H         4.302878        -1.590511         0.457514
