19
Iteration:  1083charge 0 multiplicity 1
 C        -0.000584        -0.217931        -0.048076
 C         1.472689         0.073068         0.054107
 C         2.009108         0.799785         1.319593
 C         3.524523         0.362915         1.274932
 C         3.992548         0.639650        -0.087125
 C         3.109518         1.394784        -1.061441
 O         1.713049         0.879260        -1.057222
 C         3.555828        -0.771876         0.222092
 O         2.237899        -1.106907        -0.187405
 H        -0.397167        -1.090569         0.585175
 H        -0.484469         0.686271         0.338210
 H        -0.182240        -0.428875        -1.093091
 H         1.858436         1.860144         1.056324
 H         1.511457         0.556761         2.175143
 H         4.257972         0.676844         2.033960
 H         5.086048         0.517985        -0.163029
 H         3.228350         2.405417        -0.693233
 H         3.409725         1.295512        -2.150110
 H         4.335338        -1.585254         0.282740
