19
Iteration:  3734charge 0 multiplicity 1
 C        -0.010797        -0.401526        -0.148031
 C         1.403146         0.198454         0.035675
 C         1.947448         0.605276         1.460016
 C         3.491239         0.365745         1.298186
 C         4.023256         0.623316        -0.087230
 C         3.222924         1.287759        -1.191797
 O         1.778684         1.200442        -0.957675
 C         3.485209        -0.781184         0.297647
 O         2.256402        -0.998613        -0.266980
 H        -0.148056        -1.132196         0.536624
 H        -0.759782         0.382909        -0.053868
 H        -0.280169        -0.916467        -1.108575
 H         1.649425         1.594917         1.537038
 H         1.727707        -0.014518         2.306758
 H         4.098484         0.627028         2.150404
 H         5.208511         0.815821        -0.161910
 H         3.595857         2.290674        -1.273572
 H         3.306937         0.633950        -2.069226
 H         4.094953        -1.646577         0.305988
