19
Iteration:  1387charge 0 multiplicity 1
 C         0.063092        -0.374446        -0.020079
 C         1.524615         0.229300         0.086512
 C         1.908302         0.579322         1.427363
 C         3.443058         0.447415         1.283577
 C         3.990821         0.661664        -0.199926
 C         3.183433         1.250760        -1.300737
 O         1.781530         1.155791        -0.979138
 C         3.532176        -0.725751         0.309504
 O         2.190121        -1.058347        -0.176809
 H         0.035946        -1.291456         0.593122
 H        -0.597531         0.399538         0.230214
 H         0.020512        -0.640834        -1.109311
 H         1.552472         1.543489         1.843679
 H         1.402592        -0.241606         2.123948
 H         4.165005         0.624303         2.094707
 H         5.092643         0.770793        -0.140627
 H         3.444789         2.259025        -1.697145
 H         3.311512         0.499349        -2.108774
 H         4.082976        -1.660912         0.181679
