19
Iteration:  3409
 C         0.036240        -0.266107        -0.201754
 C         1.453032         0.090392         0.067765
 C         1.918444         0.620434         1.432758
 C         3.416772         0.370901         1.230073
 C         4.014224         0.564496        -0.137686
 C         3.176486         1.398950        -1.162329
 O         1.767958         1.107963        -0.913254
 C         3.571015        -0.744384         0.279270
 O         2.248748        -1.079453        -0.219370
 H        -0.184067        -1.020481         0.557682
 H        -0.600240         0.586461         0.135362
 H        -0.227350        -0.681952        -1.198316
 H         1.746320         1.629955         1.617377
 H         1.648398        -0.030928         2.287374
 H         4.130669         0.512585         2.027366
 H         5.135545         0.735478        -0.119337
 H         3.409788         2.401297        -1.006231
 H         3.173363         1.213956        -2.253227
 H         4.269752        -1.590300         0.524105
