19
Iteration:  1302
 C         0.065925        -0.287044        -0.027502
 C         1.448432         0.168643         0.097439
 C         2.020691         0.638573         1.422302
 C         3.478784         0.378470         1.272727
 C         3.973386         0.636211        -0.165248
 C         3.188366         1.443213        -1.129586
 O         1.773078         0.944944        -1.180395
 C         3.515106        -0.692276         0.220935
 O         2.162805        -1.077789        -0.093426
 H        -0.105016        -0.960895         0.851731
 H        -0.827728         0.338441        -0.013845
 H        -0.006181        -0.979699        -0.944090
 H         1.703147         1.722718         1.571381
 H         1.545893        -0.129912         2.003893
 H         4.108136         0.435379         2.167009
 H         5.092671         0.599972        -0.191679
 H         3.444681         2.527500        -0.801994
 H         3.463258         1.397197        -2.200177
 H         4.121259        -1.625577         0.190872
