19
Iteration:   366charge 0 multiplicity 1
 C         0.036793        -0.296939         0.058083
 C         1.503111         0.082935         0.007619
 C         1.878899         0.696627         1.300817
 C         3.458766         0.500065         1.248916
 C         3.998169         0.483489        -0.176978
 C         3.205222         1.394629        -1.045001
 O         1.788462         1.020829        -1.178894
 C         3.535341        -0.755226         0.263809
 O         2.240790        -1.063374        -0.121653
 H        -0.052816        -1.089498         0.758052
 H        -0.737289         0.458664         0.354952
 H        -0.395443        -0.630366        -0.921870
 H         1.602601         1.715138         1.420973
 H         1.538482         0.114945         2.275305
 H         4.152337         0.761738         2.056247
 H         5.070409         0.675624        -0.115015
 H         3.195108         2.347443        -0.553653
 H         3.530236         1.379751        -2.174926
 H         4.040838        -1.694282         0.360082
