19
Iteration:  2209charge 0 multiplicity 1
 C        -0.046932        -0.334932        -0.126256
 C         1.496585         0.083397         0.052875
 C         2.033933         0.736039         1.405565
 C         3.504930         0.385054         1.261337
 C         4.044117         0.545761        -0.208816
 C         3.074672         1.287259        -1.220368
 O         1.677098         1.225269        -0.895541
 C         3.549597        -0.807412         0.333121
 O         2.294889        -1.098119        -0.204145
 H        -0.494154        -0.732493         0.750954
 H        -0.664133         0.535448        -0.386159
 H        -0.081393        -0.979919        -0.976313
 H         1.754704         1.828735         1.430920
 H         1.653873         0.288813         2.364008
 H         4.182809         0.693738         2.012210
 H         5.110883         0.696793        -0.400720
 H         3.392083         2.314350        -1.043673
 H         3.392557         0.865633        -2.259645
 H         4.122424        -1.658290         0.684498
