19
Iteration:  1371charge 0 multiplicity 1
 C         0.066699        -0.249889        -0.083058
 C         1.457737         0.095988         0.084816
 C         1.955853         0.605080         1.498294
 C         3.382971         0.375397         1.234040
 C         3.985609         0.694639        -0.122919
 C         3.138955         1.137672        -1.344681
 O         1.743711         1.137491        -0.932810
 C         3.573367        -0.734316         0.282299
 O         2.295493        -0.997834        -0.212970
 H        -0.176151        -1.112505         0.580992
 H        -0.714978         0.570228         0.141829
 H        -0.093783        -0.627533        -1.076677
 H         1.711004         1.657659         1.605000
 H         1.714411        -0.007427         2.335778
 H         4.100650         0.432184         2.064869
 H         5.001919         1.069868        -0.153831
 H         3.272767         2.201937        -1.468505
 H         3.392681         0.649738        -2.345418
 H         4.234686        -1.530262         0.612011
