19
Iteration:  4829charge 0 multiplicity 1
 C        -0.102909        -0.290590        -0.051350
 C         1.463293         0.146926        -0.059329
 C         2.003757         0.614554         1.379355
 C         3.499644         0.274319         1.321101
 C         4.048002         0.710770        -0.031094
 C         3.171854         1.430224        -1.079414
 O         1.760642         1.039500        -1.039484
 C         3.601917        -0.758413         0.128447
 O         2.206101        -1.082881        -0.177572
 H        -0.163080        -1.170533         0.584268
 H        -0.778761         0.597888         0.135525
 H        -0.429462        -0.577154        -1.151376
 H         1.799261         1.737444         1.656730
 H         1.671117         0.175501         2.295536
 H         4.154026         0.319267         2.225596
 H         5.083624         0.893065        -0.220273
 H         3.112914         2.455880        -0.928475
 H         3.504013         1.015205        -2.059810
 H         4.157805        -1.658822         0.187560
