19
Iteration:   545
 C         0.013712        -0.262835        -0.078951
 C         1.513546         0.038641         0.049292
 C         1.931905         0.669369         1.432656
 C         3.456481         0.577276         1.237715
 C         4.008998         0.580036        -0.195697
 C         3.161511         1.292022        -1.237840
 O         1.783123         1.079711        -0.958546
 C         3.534921        -0.683761         0.283213
 O         2.201113        -1.201321        -0.149515
 H        -0.200418        -1.136248         0.606320
 H        -0.308140         0.634966         0.390910
 H        -0.322851        -0.366354        -1.079990
 H         1.359216         1.663735         1.589255
 H         1.711174        -0.030839         2.237492
 H         4.104921         0.878247         2.078154
 H         5.054231         0.726094        -0.364051
 H         3.429216         2.343051        -1.129607
 H         3.552765         0.886984        -2.260918
 H         4.222045        -1.558660         0.325683
