19
Iteration:    53
 C         0.017144        -0.246143        -0.058163
 C         1.492929         0.013301         0.028771
 C         1.936106         0.729922         1.330270
 C         3.427287         0.412949         1.270926
 C         4.061227         0.668731        -0.111892
 C         3.116155         1.240733        -1.198252
 O         1.738392         1.049505        -0.913288
 C         3.560385        -0.739369         0.261598
 O         2.284675        -1.081961        -0.214401
 H        -0.249285        -0.954757         0.642876
 H        -0.438858         0.681648         0.249898
 H        -0.305393        -0.591567        -1.012248
 H         1.624654         1.881923         1.241615
 H         1.512601         0.510613         2.298927
 H         4.023049         0.393609         2.145160
 H         5.107848         0.879222        -0.178760
 H         3.274768         2.283775        -1.361111
 H         3.385759         0.691198        -2.178697
 H         4.167901        -1.593340         0.465475
