19
Iteration:  3265
 C         0.007543        -0.308468        -0.095599
 C         1.415832         0.118713        -0.058348
 C         2.035598         0.758286         1.325242
 C         3.530968         0.293964         1.245918
 C         4.086759         0.620189        -0.109590
 C         3.103794         1.586787        -0.934244
 O         1.793417         0.991527        -1.177884
 C         3.503705        -0.799028         0.282336
 O         2.192208        -1.161501        -0.098478
 H         0.075666        -1.268760         0.612848
 H        -0.633864         0.455044         0.419194
 H        -0.398502        -0.524901        -1.105519
 H         1.767528         1.829504         1.266055
 H         1.385768         0.260640         2.089125
 H         4.170571         0.283944         2.196407
 H         5.118597         0.451803        -0.128856
 H         2.920850         2.477915        -0.349076
 H         3.380334         1.875233        -1.961507
 H         4.040980        -1.743055         0.056029
