19
Iteration:   427
 C         0.004599        -0.161741        -0.113190
 C         1.443875         0.140353         0.030054
 C         1.985691         0.672742         1.385985
 C         3.481587         0.397477         1.229820
 C         4.066046         0.631366        -0.179514
 C         3.076589         1.411140        -1.146476
 O         1.751258         0.892824        -1.056324
 C         3.550821        -0.759431         0.296666
 O         2.265497        -1.129349        -0.070098
 H        -0.242130        -0.994082         0.653198
 H        -0.607503         0.737632        -0.005653
 H        -0.057702        -0.685167        -1.071205
 H         1.635269         1.750268         1.493876
 H         1.532362         0.108182         2.197456
 H         4.164320         0.456609         2.105916
 H         5.137198         0.831000        -0.319553
 H         3.074076         2.493927        -0.843422
 H         3.316884         1.351166        -2.176120
 H         4.274596        -1.628190         0.495806
