19
Iteration:  3678
 C        -0.063763        -0.139939        -0.082238
 C         1.441446         0.125409         0.012623
 C         2.010862         0.607325         1.347139
 C         3.510269         0.356975         1.281303
 C         3.992664         0.683586        -0.074502
 C         3.070431         1.531780        -0.921681
 O         1.868488         0.855204        -1.227981
 C         3.613486        -0.752474         0.238651
 O         2.188005        -1.213048        -0.125642
 H        -0.478730        -0.545567         0.736681
 H        -0.500536         0.867613        -0.176879
 H        -0.282321        -0.543821        -1.070940
 H         1.587211         1.584233         1.361484
 H         1.643998         0.139741         2.196963
 H         4.218541         0.292027         2.136089
 H         5.072187         0.889513        -0.333647
 H         3.092436         2.572202        -0.469246
 H         3.418262         1.760122        -1.930892
 H         4.228474        -1.631267         0.136752
