19
Iteration:    63
 C        -0.024635        -0.211472        -0.096649
 C         1.464322        -0.053865         0.088675
 C         1.972089         0.755520         1.379440
 C         3.479469         0.365038         1.299970
 C         4.082191         0.694416        -0.153366
 C         3.105297         1.269110        -1.236990
 O         1.672235         1.085293        -0.926708
 C         3.594313        -0.679001         0.368640
 O         2.311489        -1.169612        -0.242177
 H        -0.527731        -0.912975         0.545882
 H        -0.519389         0.782563        -0.027686
 H        -0.181984        -0.407190        -1.158005
 H         1.792207         1.910420         0.984078
 H         1.509325         0.391948         2.278061
 H         4.082554         0.230781         2.136402
 H         5.129016         0.768839        -0.235292
 H         3.209023         2.325867        -1.385499
 H         3.325478         0.738430        -2.247426
 H         4.172482        -1.533559         0.569611
