19
Iteration:  4039charge 0 multiplicity 1
 C         0.014863        -0.082104        -0.094649
 C         1.457626         0.061419         0.032485
 C         1.981604         0.611431         1.421904
 C         3.428915         0.369549         1.255898
 C         4.036743         0.667255        -0.035379
 C         3.097959         1.525272        -1.033824
 O         1.809942         0.838047        -1.136240
 C         3.551141        -0.763250         0.157572
 O         2.222775        -1.164891        -0.143191
 H        -0.425007        -0.765894         0.725745
 H        -0.356788         0.913372        -0.328480
 H        -0.010347        -0.743966        -0.942097
 H         1.731137         1.683349         1.521308
 H         1.407690        -0.032685         2.139546
 H         4.087076         0.303896         2.101082
 H         5.159497         1.086659        -0.285753
 H         3.068240         2.577806        -0.536408
 H         3.566761         1.706473        -2.020484
 H         4.226653        -1.561156         0.193505
