19
Iteration:  4974
 C         0.058099        -0.162469        -0.117324
 C         1.479133         0.047065         0.084417
 C         1.914650         0.502253         1.510093
 C         3.369048         0.310171         1.275507
 C         3.973434         0.714747        -0.149732
 C         3.139628         1.209556        -1.292879
 O         1.791294         1.207404        -0.840638
 C         3.604196        -0.713908         0.242724
 O         2.291068        -1.019043        -0.279153
 H        -0.395328        -0.980921         0.587192
 H        -0.443663         0.776955        -0.234825
 H        -0.091723        -0.807932        -1.050221
 H         1.414839         1.438502         1.880547
 H         1.657840        -0.332257         2.157469
 H         4.128241         0.336860         2.059357
 H         4.959741         1.036937         0.015109
 H         3.292884         2.302934        -1.676284
 H         3.206104         0.531123        -2.231551
 H         4.303309        -1.566970         0.328872
