19
Iteration:  3232charge 0 multiplicity 1
 C         0.002526        -0.136043        -0.104004
 C         1.486506         0.060384         0.031544
 C         1.929500         0.642140         1.349857
 C         3.461628         0.369601         1.237133
 C         4.086475         0.639585        -0.113403
 C         3.100912         1.450677        -1.039784
 O         1.766473         0.943440        -0.985307
 C         3.544249        -0.756732         0.257932
 O         2.280877        -1.157288        -0.242834
 H        -0.393874        -0.912997         0.665345
 H        -0.561584         0.818499         0.013214
 H        -0.326775        -0.558758        -1.085264
 H         1.538634         1.669708         1.348409
 H         1.572931         0.163414         2.301340
 H         4.100727         0.448922         2.166171
 H         5.113712         0.766311        -0.044769
 H         2.939609         2.531192        -0.741868
 H         3.436772         1.490211        -2.105518
 H         4.290714        -1.612832         0.246437
