19
Iteration:  4292charge 0 multiplicity 1
 C         0.004031        -0.177406        -0.093423
 C         1.459130         0.111508        -0.006578
 C         1.930878         0.552253         1.395883
 C         3.475801         0.445908         1.237824
 C         3.972916         0.657121        -0.122763
 C         3.167375         1.491874        -1.050294
 O         1.841064         0.905707        -1.105033
 C         3.543276        -0.695203         0.176760
 O         2.211700        -1.171773        -0.073631
 H        -0.152121        -0.976770         0.553625
 H        -0.516913         0.756089         0.166712
 H        -0.307707        -0.459582        -1.123776
 H         1.614321         1.508066         1.724439
 H         1.516684        -0.201827         2.099394
 H         4.173418         0.351464         2.071334
 H         4.968369         0.642485        -0.087738
 H         3.011439         2.456204        -0.632737
 H         3.695463         1.612329        -1.969623
 H         4.317758        -1.443440         0.152054
