19
Iteration:  2465charge 0 multiplicity 1
 C         0.032590        -0.330937         0.008956
 C         1.494721         0.156730         0.012056
 C         2.003446         0.823679         1.270099
 C         3.410303         0.362437         1.209885
 C         4.012974         0.511733        -0.174490
 C         3.168985         1.514456        -0.960265
 O         1.845600         0.955503        -1.101995
 C         3.481329        -0.783595         0.240837
 O         2.172221        -1.164037        -0.151071
 H        -0.079098        -0.778846         0.918757
 H        -0.749990         0.397580         0.026072
 H        -0.123156        -1.084028        -0.811287
 H         1.739848         1.903211         1.193705
 H         1.457372         0.404973         2.113392
 H         4.161924         0.544541         1.977716
 H         5.082001         0.798046        -0.318847
 H         3.009924         2.313598        -0.259336
 H         3.561860         1.969090        -1.932501
 H         4.207674        -1.568796         0.396819
