19
Iteration:   506
 C         0.026273        -0.328954         0.011831
 C         1.432865         0.124142        -0.045838
 C         1.967903         0.761273         1.425879
 C         3.440997         0.400621         1.451441
 C         4.049947         0.602771        -0.126004
 C         3.172390         1.135258        -1.186249
 O         1.649815         1.102443        -1.039413
 C         3.624747        -0.729700         0.262573
 O         2.300102        -0.964494        -0.307131
 H        -0.255831        -0.987354         0.836277
 H        -0.668726         0.522404         0.076453
 H        -0.347132        -0.980203        -0.844880
 H         1.788714         1.811714         1.547431
 H         1.391401         0.257200         2.274587
 H         4.177507         0.334211         2.246493
 H         5.161299         0.814968        -0.240252
 H         3.363749         2.168262        -1.533736
 H         3.224440         0.501838        -2.025666
 H         4.190817        -1.598685         0.228582
