19
Iteration:   310charge 0 multiplicity 1
 C        -0.035391        -0.238387        -0.155289
 C         1.486068         0.060781         0.095728
 C         1.956566         0.692811         1.427204
 C         3.500390         0.422262         1.282337
 C         3.956180         0.627745        -0.159356
 C         3.115911         1.288446        -1.206233
 O         1.715035         1.066007        -0.977540
 C         3.649999        -0.761388         0.331284
 O         2.258545        -1.117573        -0.184108
 H        -0.732289        -0.789331         0.496439
 H        -0.455982         0.755519        -0.184384
 H        -0.103082        -0.729832        -1.124566
 H         1.828379         1.731421         1.513241
 H         1.760459         0.205044         2.493936
 H         4.215058         0.804586         2.026470
 H         5.009036         0.782542        -0.045439
 H         3.364336         2.330359        -1.356462
 H         3.391856         0.870029        -2.305644
 H         4.390476        -1.619392         0.237333
