19
Iteration:  4060charge 0 multiplicity 1
 C        -0.030067        -0.181272        -0.111106
 C         1.463079         0.095046        -0.031137
 C         2.008814         0.662512         1.354270
 C         3.522493         0.311595         1.265960
 C         3.982409         0.649610        -0.140283
 C         3.085624         1.573373        -0.900053
 O         1.904443         0.819076        -1.221111
 C         3.487359        -0.753084         0.283434
 O         2.208175        -1.111449        -0.123041
 H        -0.130732        -0.658941         0.941814
 H        -0.567822         0.787925        -0.154167
 H        -0.529082        -0.877250        -0.822711
 H         1.636972         1.688048         1.607483
 H         1.459171        -0.075002         1.993517
 H         4.098466         0.414426         2.163785
 H         5.126605         0.745538        -0.445341
 H         2.999482         2.550089        -0.190110
 H         3.471741         1.927076        -1.890566
 H         4.207353        -1.502391         0.188114
