19
Iteration:  1396charge 0 multiplicity 1
 C         0.023621        -0.340520        -0.085162
 C         1.418549         0.147518        -0.005821
 C         1.934503         0.643141         1.428332
 C         3.490200         0.448180         1.307810
 C         3.986630         0.596049        -0.147333
 C         3.204087         1.231476        -1.274664
 O         1.748153         1.181450        -0.955355
 C         3.535873        -0.705348         0.253114
 O         2.246904        -1.042388        -0.139470
 H         0.159102        -1.149278         0.695192
 H        -0.745664         0.232083         0.370463
 H        -0.358704        -0.813107        -1.000356
 H         1.483649         1.555513         1.728440
 H         1.761802        -0.239092         2.138406
 H         4.304074         0.569154         2.055261
 H         5.108847         0.642662        -0.281925
 H         3.337831         2.271057        -1.487050
 H         3.494370         0.646834        -2.234501
 H         4.214100        -1.545529         0.367384
