19
Iteration:  3789charge 0 multiplicity 1
 C        -0.069175        -0.153913        -0.225297
 C         1.447946         0.031052         0.035835
 C         1.956389         0.543708         1.410647
 C         3.478447         0.415473         1.325253
 C         4.067535         0.672423        -0.103548
 C         3.107934         1.190498        -1.208024
 O         1.734691         1.130368        -0.892459
 C         3.613215        -0.673781         0.318432
 O         2.308437        -1.077470        -0.248623
 H        -0.497055        -0.966887         0.265843
 H        -0.606916         0.657118         0.259854
 H        -0.280506        -0.230906        -1.324667
 H         1.459745         1.425122         1.708091
 H         1.727184        -0.209065         2.159039
 H         3.996038         0.416329         2.290968
 H         5.203863         1.046023        -0.191428
 H         3.539561         2.184342        -1.368933
 H         3.190075         0.732684        -2.235973
 H         4.159161        -1.575881         0.604960
