19
Iteration:  3550charge 0 multiplicity 1
 C        -0.052882        -0.215085        -0.203261
 C         1.422326         0.054483         0.046264
 C         1.893828         0.548346         1.408726
 C         3.435602         0.438194         1.224842
 C         4.059096         0.632158        -0.132295
 C         3.164681         1.179138        -1.234788
 O         1.720891         1.201725        -0.795308
 C         3.634089        -0.736486         0.324954
 O         2.359124        -1.060656        -0.263799
 H        -0.665973        -0.709909         0.531789
 H        -0.418843         0.875891        -0.231522
 H        -0.231161        -0.796470        -1.207173
 H         1.645719         1.599260         1.481273
 H         1.632067        -0.154567         2.348236
 H         3.855972         0.692105         2.218556
 H         5.123264         1.120274         0.074608
 H         3.478503         2.144940        -1.327900
 H         3.241395         0.478575        -2.104936
 H         4.187471        -1.684727         0.499924
