19
Iteration:  2137
 C        -0.071899        -0.213789         0.012481
 C         1.438689         0.057346         0.010882
 C         1.918659         0.582634         1.333723
 C         3.505182         0.555862         1.167938
 C         4.065189         0.568700        -0.224893
 C         3.138825         1.239510        -1.201335
 O         1.718722         1.081119        -0.892696
 C         3.605097        -0.740704         0.364032
 O         2.332866        -1.090776        -0.231208
 H        -0.605249        -0.870375         0.792253
 H        -0.435624         0.845986         0.217177
 H        -0.454188        -0.337093        -1.033418
 H         1.533040         1.550213         1.483938
 H         1.568560        -0.055199         2.149589
 H         4.163195         0.685618         2.097498
 H         5.153636         0.737031        -0.182783
 H         3.283982         2.343726        -1.086976
 H         3.443252         0.884544        -2.137443
 H         4.136647        -1.599814         0.673296
