19
Iteration:   670charge 0 multiplicity 1
 C         0.038849        -0.226080        -0.106688
 C         1.437205         0.154193         0.114921
 C         1.973504         0.706883         1.493238
 C         3.458886         0.366871         1.259199
 C         3.941375         0.660722        -0.149232
 C         3.173589         1.304296        -1.236959
 O         1.703026         0.967780        -1.032630
 C         3.615508        -0.760918         0.172680
 O         2.260909        -1.113550        -0.074788
 H        -0.461649        -0.817199         0.676569
 H        -0.478625         0.805309        -0.373613
 H         0.130174        -0.802188        -1.083910
 H         1.766509         1.755727         1.487763
 H         1.555365         0.370392         2.420426
 H         4.221054         0.593763         1.998281
 H         5.004564         0.999794        -0.143347
 H         3.410825         2.414239        -1.252978
 H         3.383448         0.904678        -2.214540
 H         4.180135        -1.743071         0.191892
