19
Iteration:  3709
 C         0.025424        -0.206202        -0.108937
 C         1.478108         0.103682        -0.009591
 C         1.893704         0.623527         1.374415
 C         3.449286         0.330890         1.267010
 C         4.060301         0.626762        -0.125692
 C         3.122581         1.406435        -1.073004
 O         1.754722         1.048917        -0.986287
 C         3.584270        -0.766163         0.276964
 O         2.267003        -1.112322        -0.209302
 H        -0.383415        -0.769727         0.759756
 H        -0.423404         0.767752        -0.248978
 H        -0.303686        -0.741299        -0.982493
 H         1.574084         1.709122         1.271155
 H         1.533538         0.128912         2.232432
 H         4.039221         0.269343         2.214189
 H         5.059674         0.855620        -0.265789
 H         3.305563         2.418243        -0.868219
 H         3.352883         1.163086        -2.111332
 H         4.340821        -1.589871         0.461879
