19
Iteration:  2976charge 0 multiplicity 1
 C        -0.067231        -0.244126        -0.174194
 C         1.400696         0.186605         0.092390
 C         1.978226         0.500195         1.529521
 C         3.473759         0.434885         1.338559
 C         4.023955         0.743651        -0.105320
 C         3.165916         1.102090        -1.265396
 O         1.758295         1.191033        -0.917313
 C         3.615338        -0.706043         0.267564
 O         2.291236        -1.063813        -0.319283
 H        -0.290106        -1.019546         0.631567
 H        -0.642838         0.639656        -0.013342
 H        -0.230925        -0.658356        -1.148581
 H         1.460026         1.404581         1.768977
 H         1.530407        -0.245852         2.177720
 H         4.040299         0.398244         2.283418
 H         5.120014         0.993638        -0.101116
 H         3.470257         2.073492        -1.660635
 H         3.287568         0.448532        -2.156483
 H         4.183425        -1.637537         0.355365
