19
Iteration:  1285charge 0 multiplicity 1
 C        -0.072531        -0.344585        -0.028298
 C         1.434701         0.125387        -0.078846
 C         2.044515         0.749260         1.313376
 C         3.549160         0.366017         1.216504
 C         4.076775         0.674060        -0.120702
 C         3.107048         1.454532        -1.031720
 O         1.772445         0.969022        -1.100214
 C         3.541238        -0.791812         0.286672
 O         2.190815        -1.121569        -0.095308
 H        -0.221417        -1.022449         0.775301
 H        -0.616598         0.651397         0.065861
 H        -0.348073        -0.736296        -0.958997
 H         1.818870         1.806779         1.480305
 H         1.699759         0.298116         2.296820
 H         4.163897         0.300746         2.101978
 H         5.112042         0.828249        -0.366200
 H         2.903955         2.489298        -0.793581
 H         3.677869         1.436989        -1.994758
 H         4.031843        -1.784272         0.381242
