19
Iteration:   989
 C        -0.061365        -0.221247        -0.050047
 C         1.455094         0.127482         0.019319
 C         2.023902         0.599852         1.374670
 C         3.531061         0.372858         1.295882
 C         3.926661         0.686784        -0.096208
 C         3.134572         1.244386        -1.215823
 O         1.758415         1.069979        -1.042545
 C         3.636789        -0.696762         0.255950
 O         2.214446        -1.063475        -0.124151
 H        -0.267603        -0.879128         0.838490
 H        -0.701886         0.631585        -0.067354
 H        -0.142863        -0.895682        -0.939907
 H         1.814337         1.696345         1.531665
 H         1.496533        -0.043297         2.164132
 H         4.303239         0.411509         2.055486
 H         5.025265         0.804337        -0.291673
 H         3.159430         2.297401        -1.327707
 H         3.580064         0.747626        -2.064203
 H         4.210670        -1.602729         0.312636
