19
Iteration:   500charge 0 multiplicity 1
 C         0.012996        -0.320281        -0.029903
 C         1.453541         0.104255        -0.044874
 C         2.025676         0.756110         1.486826
 C         3.492152         0.405620         1.365240
 C         3.987471         0.581606        -0.033463
 C         3.121873         1.164039        -1.202281
 O         1.639907         1.078511        -1.027950
 C         3.554975        -0.727336         0.257385
 O         2.327138        -0.944788        -0.316063
 H        -0.232778        -0.952306         0.843118
 H        -0.564764         0.617026        -0.018384
 H        -0.112952        -1.005424        -0.847901
 H         1.799813         1.863030         1.344153
 H         1.365111         0.394684         2.330447
 H         4.159476         0.295307         2.225371
 H         4.988261         0.860629        -0.244585
 H         3.458564         2.163766        -1.497805
 H         3.424963         0.317679        -1.986228
 H         4.260356        -1.626296         0.313815
