19
Iteration:  1248
 C         0.070255        -0.146447        -0.051494
 C         1.530545         0.014835         0.019425
 C         1.988595         0.739327         1.348462
 C         3.467362         0.387274         1.190832
 C         3.992535         0.680244        -0.135567
 C         3.036272         1.429949        -1.047197
 O         1.772394         0.900078        -1.088426
 C         3.545777        -0.809468         0.302793
 O         2.250518        -1.153336        -0.144601
 H        -0.365306        -1.014199         0.561514
 H        -0.353437         0.756992         0.395951
 H        -0.365607        -0.309816        -1.098617
 H         1.692884         1.855135         1.359317
 H         1.546536         0.229213         2.162731
 H         4.098589         0.519765         2.083016
 H         5.070233         0.868457        -0.382935
 H         3.022311         2.404051        -0.626456
 H         3.333489         1.521484        -2.132887
 H         4.186200        -1.712860         0.424363
