19
Iteration:  1723charge 0 multiplicity 1
 C        -0.000945        -0.271887        -0.052884
 C         1.486117         0.056310         0.053145
 C         2.017874         0.629757         1.360867
 C         3.478538         0.484701         1.175045
 C         3.972272         0.560497        -0.306012
 C         3.150895         1.452355        -1.138437
 O         1.816617         0.955641        -1.015302
 C         3.508046        -0.705740         0.362524
 O         2.219467        -1.132233        -0.094534
 H        -0.428471        -1.043118         0.563706
 H        -0.454708         0.746877         0.311514
 H        -0.446035        -0.168061        -1.100467
 H         1.576315         1.621269         1.492113
 H         1.608292        -0.012540         2.210985
 H         4.132441         0.784884         2.077896
 H         5.074372         0.498908        -0.356023
 H         3.061984         2.496224        -0.726935
 H         3.482580         1.515117        -2.155283
 H         4.271014        -1.469153         0.534575
