19
Iteration:  4909charge 0 multiplicity 1
 C         0.036154        -0.251769        -0.137426
 C         1.488970         0.136935         0.033852
 C         1.983737         0.722300         1.452414
 C         3.507592         0.227140         1.288895
 C         3.974578         0.608903        -0.127582
 C         3.104435         1.494646        -1.037338
 O         1.773314         0.996209        -1.048957
 C         3.537915        -0.729117         0.164674
 O         2.178764        -1.125975        -0.175336
 H         0.009091        -1.068095         0.631600
 H        -0.629581         0.552439         0.134011
 H        -0.013400        -0.770754        -1.100969
 H         1.842098         1.763815         1.432937
 H         1.553658         0.195575         2.302938
 H         4.260591         0.181317         2.052062
 H         4.994397         0.881785        -0.099018
 H         3.156263         2.523596        -0.785909
 H         3.525820         1.477497        -2.020285
 H         4.267024        -1.546364        -0.061983
