19
Iteration:  4387
 C         0.001046        -0.202359        -0.112894
 C         1.463396         0.076793         0.074050
 C         1.867957         0.460997         1.399779
 C         3.437400         0.491910         1.199577
 C         4.029490         0.666393        -0.088145
 C         3.142096         1.267146        -1.235361
 O         1.778686         1.126190        -0.880341
 C         3.602770        -0.726522         0.352334
 O         2.276005        -1.068511        -0.278895
 H        -0.293184        -0.829552         0.701173
 H        -0.373825         0.868159        -0.220347
 H        -0.201748        -0.760363        -1.075452
 H         1.334271         1.263703         1.836415
 H         1.693023        -0.436451         2.081878
 H         4.096643         0.730408         1.980599
 H         5.065820         0.797406        -0.112883
 H         3.524543         2.351326        -1.293773
 H         3.308832         0.887271        -2.252898
 H         4.245986        -1.574953         0.381739
