19
Iteration:   436
 C         0.003826        -0.212642        -0.114476
 C         1.494239         0.138673         0.085609
 C         1.985579         0.592629         1.400516
 C         3.495812         0.503728         1.207808
 C         4.034497         0.607941        -0.261159
 C         3.143748         1.474310        -1.164902
 O         1.765569         0.945984        -1.061041
 C         3.557184        -0.749755         0.381012
 O         2.188240        -1.190745        -0.094643
 H        -0.549737        -0.890413         0.611265
 H        -0.666502         0.693573        -0.124540
 H        -0.118524        -0.655518        -1.117339
 H         1.564112         1.609533         1.618094
 H         1.772627        -0.025973         2.171975
 H         4.261161         0.654323         1.981207
 H         5.089551         0.665522        -0.083147
 H         3.054705         2.520854        -0.934749
 H         3.348760         1.340563        -2.149673
 H         4.211114        -1.634204         0.651530
