19
Iteration:  3197charge 0 multiplicity 1
 C         0.004811        -0.222539        -0.123529
 C         1.478647         0.176904         0.028843
 C         1.930211         0.475934         1.438688
 C         3.429301         0.338443         1.334195
 C         3.991825         0.684175        -0.065256
 C         3.160296         1.274070        -1.239282
 O         1.753453         1.138965        -0.969659
 C         3.568710        -0.749707         0.226554
 O         2.269370        -1.037633        -0.193013
 H        -0.190084        -0.815667         0.819088
 H        -0.761759         0.638609        -0.221109
 H         0.119203        -0.923993        -1.084009
 H         1.566965         1.574986         1.737654
 H         1.603886        -0.307209         2.160186
 H         4.134425         0.509025         2.110600
 H         5.004573         1.005869        -0.161021
 H         3.345165         2.356757        -1.317178
 H         3.464050         0.697762        -2.181972
 H         4.385720        -1.451951         0.089204
