19
Iteration:  2922
 C        -0.040639        -0.286361        -0.138490
 C         1.470054         0.059265         0.041658
 C         1.988233         0.721009         1.334941
 C         3.429658         0.380919         1.253418
 C         4.046155         0.607620        -0.152518
 C         3.168127         1.343773        -1.105608
 O         1.708540         1.162068        -0.889520
 C         3.555223        -0.774760         0.298155
 O         2.315214        -1.135727        -0.235626
 H        -0.215371        -1.279106         0.408143
 H        -0.613190         0.455518         0.356335
 H        -0.176922        -0.314403        -1.192654
 H         1.662578         1.720205         1.275616
 H         1.493315         0.203356         2.124602
 H         3.967622         0.620131         2.159312
 H         5.157753         0.619141        -0.214702
 H         3.308307         2.394872        -1.027704
 H         3.335225         0.866978        -2.064109
 H         4.106341        -1.696166         0.349050
