19
Iteration:  4490
 C        -0.048530        -0.189457        -0.036186
 C         1.482591         0.028565        -0.079382
 C         1.958683         0.684949         1.340678
 C         3.462767         0.328737         1.292163
 C         4.072324         0.731676        -0.085288
 C         3.112699         1.452050        -1.022609
 O         1.771862         0.971215        -1.060123
 C         3.524951        -0.764025         0.252215
 O         2.274259        -1.170458        -0.224412
 H        -0.280239        -1.108879         0.616652
 H        -0.519565         0.631521         0.463629
 H        -0.378632        -0.303257        -1.030027
 H         1.759709         1.803211         1.395433
 H         1.591335         0.174784         2.188368
 H         3.981043         0.120396         2.231552
 H         5.174656         0.937087        -0.267184
 H         3.201816         2.489622        -0.614586
 H         3.524802         1.367342        -2.033416
 H         4.227305        -1.574326         0.204015
