19
Iteration:  2444
 C        -0.082801        -0.359238        -0.066478
 C         1.465940         0.061103         0.019748
 C         2.032455         0.824846         1.291438
 C         3.526394         0.338662         1.271484
 C         4.081456         0.552564        -0.117874
 C         3.135759         1.457290        -0.965097
 O         1.720589         0.966789        -1.023534
 C         3.553877        -0.737436         0.260116
 O         2.205057        -1.065452        -0.202680
 H        -0.627838        -0.505213         0.791927
 H        -0.567656         0.452872        -0.610467
 H        -0.172619        -1.159894        -0.853832
 H         2.070108         1.915017         1.073921
 H         1.648906         0.752074         2.295100
 H         4.160800         0.135942         2.161464
 H         5.137808         0.638088        -0.513255
 H         3.169931         2.589528        -0.792065
 H         3.446836         1.334072        -2.119831
 H         4.169550        -1.606391         0.417413
