19
Iteration:  2172charge 0 multiplicity 1
 C         0.073191        -0.235930        -0.035468
 C         1.460271         0.148997         0.084920
 C         1.936810         0.552385         1.466578
 C         3.426094         0.365286         1.254518
 C         4.025912         0.759951        -0.110312
 C         3.107148         1.079508        -1.332096
 O         1.775532         1.154617        -0.914478
 C         3.558881        -0.683575         0.217426
 O         2.259825        -1.011779        -0.175288
 H        -0.461080        -0.724926         0.829069
 H        -0.345807         0.708507        -0.411820
 H         0.033359        -1.052777        -0.954959
 H         1.756795         1.621033         1.745541
 H         1.376780        -0.180682         2.102097
 H         4.230608         0.403989         2.038315
 H         5.104839         0.942267        -0.247142
 H         3.361762         2.032409        -1.841178
 H         3.028771         0.391911        -2.200682
 H         4.095117        -1.627715         0.386093
