19
Iteration:  1197charge 0 multiplicity 1
 C         0.067110        -0.233331        -0.049436
 C         1.475158         0.115019         0.007631
 C         1.994469         0.643730         1.414462
 C         3.458744         0.427371         1.262440
 C         4.014597         0.638917        -0.173602
 C         3.173231         1.350634        -1.201483
 O         1.737772         1.018496        -0.959929
 C         3.536346        -0.711631         0.300120
 O         2.225572        -1.155654        -0.210927
 H        -0.172416        -0.923039         0.680246
 H        -0.696466         0.565391         0.106816
 H        -0.158215        -0.740496        -0.958634
 H         1.688384         1.700302         1.320034
 H         1.467693         0.232410         2.323431
 H         4.028568         0.480511         2.189876
 H         5.065273         0.883265        -0.174536
 H         3.232067         2.502316        -1.101704
 H         3.252623         1.054885        -2.262193
 H         4.051559        -1.705632         0.435602
