19
Iteration:  4255
 C        -0.114237        -0.153654        -0.094944
 C         1.481477         0.032577        -0.056761
 C         2.052030         0.718125         1.280060
 C         3.455687         0.323589         1.314266
 C         4.023534         0.626635        -0.039198
 C         3.091341         1.491623        -0.875202
 O         1.731918         0.874268        -1.169980
 C         3.655858        -0.779339         0.222536
 O         2.302873        -1.147093        -0.168906
 H        -0.674444        -0.608735         0.872083
 H        -0.632227         0.868936        -0.079496
 H        -0.475200        -0.770237        -0.939926
 H         1.964608         1.831246         1.059575
 H         1.466584         0.543761         2.223653
 H         4.183558         0.318563         2.118574
 H         5.154325         0.933904        -0.323515
 H         2.804297         2.521497        -0.313771
 H         3.366774         1.859670        -1.922793
 H         4.348063        -1.638939         0.260239
