19
Iteration:  3087
 C        -0.045724        -0.157951        -0.016250
 C         1.435514         0.008875         0.015295
 C         1.970204         0.600952         1.265621
 C         3.461964         0.384764         1.261822
 C         4.080765         0.606005        -0.098000
 C         3.118937         1.527908        -1.009371
 O         1.783407         0.945429        -1.071386
 C         3.617993        -0.751865         0.290344
 O         2.246826        -1.160461        -0.226766
 H        -0.548924        -0.963275         0.547244
 H        -0.443224         0.845551         0.375091
 H        -0.453730        -0.404206        -1.115111
 H         1.580254         1.715119         1.222351
 H         1.310264         0.251112         2.042326
 H         4.133158         0.374719         2.103598
 H         5.180893         0.771500        -0.187875
 H         3.013722         2.597544        -0.647792
 H         3.462744         1.662381        -2.102248
 H         4.415487        -1.421145         0.562571
