19
Iteration:  2334charge 0 multiplicity 1
 C         0.045451        -0.349354        -0.082937
 C         1.416360         0.221012         0.073716
 C         1.993733         0.727150         1.452264
 C         3.507096         0.367472         1.314168
 C         3.963325         0.613533        -0.141362
 C         3.142215         1.246721        -1.223950
 O         1.748248         1.111163        -1.004180
 C         3.501365        -0.777231         0.210119
 O         2.238695        -1.060858        -0.148516
 H         0.083867        -1.271611         0.411748
 H        -0.746397         0.319533         0.116936
 H         0.057099        -0.580482        -1.169290
 H         1.798660         1.767739         1.663564
 H         1.590690         0.139129         2.243119
 H         4.321871         0.485312         1.973166
 H         4.994981         0.850255        -0.324129
 H         3.486909         2.310928        -1.317839
 H         3.443997         0.888967        -2.216315
 H         4.141534        -1.673850         0.390631
