19
Iteration:  3911charge 0 multiplicity 1
 C        -0.042216        -0.149741        -0.182239
 C         1.434871         0.051796         0.073258
 C         1.934933         0.540211         1.462487
 C         3.433140         0.369755         1.268251
 C         4.008534         0.664930        -0.125527
 C         3.197443         1.403899        -1.146941
 O         1.758949         1.021297        -1.052082
 C         3.605509        -0.713655         0.241317
 O         2.277251        -1.113326        -0.142336
 H        -0.496775        -0.830089         0.644896
 H        -0.529022         0.817803        -0.060614
 H        -0.249799        -0.436729        -1.155024
 H         1.454000         1.437843         1.692620
 H         1.736700        -0.156175         2.303931
 H         4.106881         0.338850         2.111784
 H         5.134691         0.941932        -0.253958
 H         3.249342         2.481043        -1.027463
 H         3.702357         1.047552        -2.116794
 H         4.251174        -1.551617         0.430451
