19
Iteration:   511
 C         0.000017        -0.349063         0.032225
 C         1.442682         0.155656        -0.008747
 C         1.925777         0.739222         1.370633
 C         3.412524         0.371610         1.438104
 C         4.107486         0.634048        -0.155051
 C         3.176377         1.140993        -1.204383
 O         1.676660         1.123635        -1.036424
 C         3.633396        -0.715518         0.289662
 O         2.286334        -0.999326        -0.289431
 H        -0.135138        -0.970891         0.938657
 H        -0.726003         0.474138         0.123891
 H        -0.377871        -0.803224        -0.860656
 H         1.755640         1.827615         1.612109
 H         1.439800         0.139331         2.219498
 H         4.124265         0.437135         2.276498
 H         5.150553         0.794993        -0.207392
 H         3.327488         2.180235        -1.499237
 H         3.236371         0.549611        -2.232142
 H         4.224529        -1.705562         0.237314
