19
Iteration:  2468
 C         0.039831        -0.327738         0.024989
 C         1.515378         0.175416        -0.011700
 C         1.986749         0.786756         1.255971
 C         3.411841         0.359029         1.197649
 C         3.985085         0.522889        -0.165372
 C         3.172435         1.511473        -0.957078
 O         1.846175         0.952986        -1.123240
 C         3.502447        -0.793502         0.248819
 O         2.160349        -1.157514        -0.129540
 H        -0.067875        -0.873655         0.984815
 H        -0.794776         0.438713         0.035563
 H        -0.145348        -0.966567        -0.848287
 H         1.782539         1.885132         1.268839
 H         1.485124         0.345200         2.108439
 H         4.236040         0.585859         1.947045
 H         5.038867         0.804041        -0.276362
 H         3.022354         2.448191        -0.255466
 H         3.576675         2.003436        -1.953966
 H         4.201875        -1.594111         0.453758
