19
Iteration:  2703charge 0 multiplicity 1
 C         0.007405        -0.322108        -0.048515
 C         1.470385         0.147382        -0.013581
 C         1.965028         0.704625         1.300618
 C         3.471814         0.420433         1.274507
 C         4.034118         0.552665        -0.087664
 C         3.170119         1.407823        -1.055323
 O         1.776531         1.025289        -1.025905
 C         3.472766        -0.802455         0.256920
 O         2.238980        -1.072232        -0.213161
 H        -0.055502        -1.143458         0.627299
 H        -0.617358         0.508522         0.350071
 H        -0.298132        -0.622303        -1.082762
 H         1.759712         1.712484         1.425214
 H         1.652876         0.139280         2.191606
 H         4.148624         0.409083         2.166801
 H         5.085305         0.823789        -0.210240
 H         3.274536         2.486366        -0.866589
 H         3.357870         1.415396        -2.115653
 H         4.148586        -1.653406         0.359581
