19
Iteration:  1764
 C         0.022952        -0.359054        -0.036450
 C         1.484625         0.117969         0.030346
 C         2.000099         0.722001         1.406660
 C         3.462334         0.263007         1.373382
 C         3.953398         0.722837        -0.122992
 C         3.133569         1.161235        -1.324991
 O         1.723038         1.145248        -0.936572
 C         3.510326        -0.737491         0.293718
 O         2.293392        -0.964487        -0.227954
 H        -0.009353        -1.237178         0.550620
 H        -0.592260         0.430148         0.314305
 H        -0.295831        -0.567815        -1.103297
 H         2.008280         1.846004         1.401430
 H         1.507353         0.391261         2.370717
 H         4.288753         0.444446         2.123722
 H         4.983522         1.021186        -0.267792
 H         3.533200         2.060977        -1.761269
 H         3.172041         0.313431        -2.054536
 H         4.136158        -1.645073         0.175083
