19
Iteration:  4583
 C         0.021364        -0.359093        -0.085449
 C         1.468290         0.173760         0.031353
 C         1.971169         0.617328         1.418127
 C         3.418131         0.321781         1.362746
 C         4.054027         0.672077        -0.061339
 C         3.139237         1.233419        -1.208965
 O         1.702872         1.239134        -0.904336
 C         3.532425        -0.790513         0.231135
 O         2.296568        -0.977741        -0.326725
 H        -0.201300        -0.987896         0.729117
 H        -0.746433         0.395939        -0.229778
 H         0.333584        -1.019266        -0.974283
 H         1.825444         1.627023         1.445623
 H         1.403397         0.049143         2.235421
 H         4.063061         0.135120         2.314851
 H         5.065638         0.821601        -0.241468
 H         3.365387         2.263923        -1.452893
 H         3.386323         0.518682        -2.051064
 H         4.061534        -1.767650         0.220045
