19
Iteration:  4546charge 0 multiplicity 1
 C        -0.028991        -0.281914        -0.147786
 C         1.439543         0.059758         0.053095
 C         1.927128         0.521187         1.368668
 C         3.457580         0.452357         1.260318
 C         4.053832         0.615441        -0.119248
 C         3.161144         1.282309        -1.224625
 O         1.766881         1.255489        -0.799760
 C         3.563700        -0.739108         0.276168
 O         2.310253        -1.082310        -0.244543
 H        -0.289799        -1.117618         0.524437
 H        -0.804173         0.480505        -0.140436
 H        -0.141288        -0.661958        -1.137659
 H         1.356540         1.493551         1.593243
 H         1.670519        -0.094519         2.172135
 H         4.009024         0.676838         2.112900
 H         5.233504         0.651598        -0.332593
 H         3.459286         2.342751        -1.405442
 H         3.182626         0.865886        -2.253854
 H         4.013033        -1.691964         0.532072
