19
Iteration:  2588
 C         0.024521        -0.324260        -0.096137
 C         1.425607         0.092370         0.041884
 C         1.946712         0.723143         1.446574
 C         3.448042         0.302451         1.291868
 C         4.009474         0.616497        -0.097667
 C         3.129537         1.207866        -1.213581
 O         1.742140         1.221863        -0.869724
 C         3.580294        -0.738269         0.306990
 O         2.310687        -1.001568        -0.348475
 H        -0.124135        -1.149693         0.687479
 H        -0.750726         0.448559         0.006577
 H        -0.074779        -0.781369        -1.028919
 H         1.525777         1.728607         1.256957
 H         1.553488         0.274106         2.380543
 H         4.021277         0.239602         2.199674
 H         5.048904         0.698703        -0.299292
 H         3.534325         2.098658        -1.595022
 H         3.228718         0.615724        -2.141250
 H         4.228410        -1.615465         0.416139
