19
Iteration:  3794charge 0 multiplicity 1
 C        -0.068416        -0.155242        -0.210516
 C         1.447145         0.065976         0.048435
 C         1.954266         0.519092         1.398810
 C         3.470896         0.409456         1.314792
 C         4.091731         0.668644        -0.106529
 C         3.134322         1.207158        -1.203150
 O         1.731776         1.100951        -0.909937
 C         3.577029        -0.684151         0.292150
 O         2.320877        -1.073644        -0.226429
 H        -0.541446        -1.061155         0.366869
 H        -0.572986         0.762659         0.177124
 H        -0.146274        -0.127052        -1.283169
 H         1.360720         1.438527         1.744556
 H         1.709086        -0.241654         2.203225
 H         3.939506         0.475130         2.295950
 H         5.041538         0.958748        -0.177824
 H         3.367948         2.323305        -1.390160
 H         3.281165         0.792832        -2.193538
 H         4.244902        -1.501482         0.579922
