19
Iteration:  3615
 C        -0.028684        -0.317821        -0.165208
 C         1.392624         0.130217         0.047695
 C         1.972574         0.698789         1.305246
 C         3.447003         0.395429         1.325923
 C         4.056668         0.583477        -0.123613
 C         3.183384         1.373828        -1.106926
 O         1.765455         1.098034        -0.957870
 C         3.525802        -0.795963         0.268425
 O         2.296161        -1.094168        -0.197368
 H        -0.198383        -1.204743         0.422766
 H        -0.541880         0.596130         0.283349
 H        -0.484585        -0.551686        -1.222657
 H         1.835565         1.765864         1.407052
 H         1.479460         0.091800         2.184088
 H         3.983838         0.298214         2.291686
 H         5.229745         0.856162        -0.165174
 H         3.216492         2.429525        -1.051850
 H         3.512137         1.089691        -2.123794
 H         4.195907        -1.620171         0.387932
