19
Iteration:  2842charge 0 multiplicity 1
 C        -0.140913        -0.155393        -0.019009
 C         1.521916         0.068343         0.013687
 C         1.993846         0.711296         1.307766
 C         3.457774         0.389639         1.241558
 C         4.009585         0.588647        -0.122613
 C         3.091177         1.515777        -0.951912
 O         1.791054         0.872434        -1.046436
 C         3.631736        -0.762616         0.253794
 O         2.304010        -1.162377        -0.266188
 H        -0.663212        -0.499598         0.797636
 H        -0.662533         0.780665        -0.361546
 H        -0.395129        -0.868718        -0.858199
 H         1.803067         1.771579         1.168319
 H         1.421908         0.381503         2.215754
 H         4.125307         0.296102         2.127682
 H         5.090344         0.581536        -0.214355
 H         3.073063         2.509262        -0.508704
 H         3.494944         1.718670        -1.916773
 H         4.221936        -1.685189         0.415506
