19
Iteration:  2846charge 0 multiplicity 1
 C        -0.111167        -0.147230        -0.023873
 C         1.460607         0.051422         0.018504
 C         1.977885         0.720882         1.313440
 C         3.462388         0.387671         1.237653
 C         4.035671         0.604015        -0.133750
 C         3.097585         1.513668        -0.933993
 O         1.793990         0.856606        -1.065023
 C         3.621696        -0.759146         0.227425
 O         2.300649        -1.185043        -0.252125
 H        -0.616987        -0.453837         0.975482
 H        -0.401264         0.853710        -0.365665
 H        -0.345212        -0.726950        -0.867237
 H         1.832939         1.759931         1.097956
 H         1.515574         0.339103         2.160729
 H         4.023434         0.310588         2.158195
 H         5.125085         0.643101        -0.195797
 H         2.872056         2.550183        -0.345423
 H         3.524663         1.788599        -1.921038
 H         4.229889        -1.653355         0.452765
