19
Iteration:  1768charge 0 multiplicity 1
 C         0.053306        -0.343292        -0.045844
 C         1.494122         0.107066         0.014365
 C         1.985014         0.709745         1.440782
 C         3.458742         0.291279         1.392770
 C         3.947966         0.739317        -0.125256
 C         3.095303         1.120359        -1.332727
 O         1.739496         1.157685        -0.939833
 C         3.523872        -0.746687         0.293347
 O         2.283243        -0.959235        -0.250111
 H         0.193605        -1.195462         0.705749
 H        -0.736895         0.489906         0.288046
 H        -0.308848        -0.562162        -1.049218
 H         1.977517         1.770701         1.453382
 H         1.410548         0.399297         2.377499
 H         4.352436         0.311087         2.095380
 H         5.052463         0.962061        -0.192434
 H         3.448375         2.064675        -1.858885
 H         3.255926         0.318757        -2.034282
 H         4.093597        -1.630715         0.155514
