19
Iteration:  1418
 C        -0.088392        -0.314203        -0.071019
 C         1.468286         0.057409         0.113725
 C         1.960559         0.735995         1.319350
 C         3.465898         0.409741         1.247362
 C         4.081046         0.593084        -0.206934
 C         3.129555         1.334535        -1.135157
 O         1.702998         1.071357        -0.947236
 C         3.620552        -0.754848         0.351265
 O         2.287020        -1.087204        -0.244562
 H        -0.467619        -1.106019         0.632108
 H        -0.621994         0.585956         0.177294
 H        -0.222148        -0.500633        -1.161497
 H         1.803731         1.782887         1.262195
 H         1.632188         0.242572         2.292858
 H         4.248510         0.532692         2.025688
 H         5.142784         0.948259        -0.151880
 H         3.181694         2.400276        -1.214823
 H         3.460234         0.941402        -2.177596
 H         4.157209        -1.689304         0.510414
