19
Iteration:  1812
 C        -0.123370        -0.239577        -0.075479
 C         1.483881         0.063845         0.020188
 C         1.938985         0.553717         1.413399
 C         3.502438         0.518283         1.214499
 C         4.097931         0.568062        -0.184456
 C         3.078676         1.258150        -1.318630
 O         1.780068         1.133946        -0.871010
 C         3.629880        -0.713087         0.347711
 O         2.250120        -1.088468        -0.188909
 H        -0.353936        -0.730115         0.931966
 H        -0.627590         0.791926        -0.230591
 H        -0.432385        -0.889590        -0.864824
 H         1.543475         1.541163         1.539158
 H         1.789043        -0.113338         2.329092
 H         4.085273         0.638594         2.090379
 H         5.135414         0.827934        -0.405544
 H         3.399187         2.330445        -1.237781
 H         3.168541         0.872137        -2.302969
 H         4.316482        -1.481068         0.651931
