19
Iteration:    82charge 0 multiplicity 1
 C        -0.078488        -0.170935        -0.229695
 C         1.475314         0.129454         0.056897
 C         2.005266         0.650999         1.423956
 C         3.549321         0.442510         1.268289
 C         3.943323         0.616755        -0.159366
 C         3.058565         1.254185        -1.182314
 O         1.680320         1.042052        -0.967977
 C         3.644203        -0.769147         0.285084
 O         2.356401        -1.141002        -0.097863
 H        -0.558814        -0.908972         0.584297
 H        -0.686195         0.801552        -0.157881
 H        -0.194367        -0.624181        -1.269467
 H         1.708243         1.649809         1.595880
 H         1.716068         0.169249         2.382678
 H         4.136579         0.778532         2.119112
 H         5.003722         0.866419        -0.207949
 H         3.257888         2.374013        -1.200050
 H         3.345594         0.862436        -2.129446
 H         4.321183        -1.609223         0.334029
