19
Iteration:  3521
 C         0.081076        -0.319711        -0.180776
 C         1.468400         0.185165         0.005349
 C         1.944397         0.611557         1.441151
 C         3.487825         0.357448         1.339262
 C         3.988948         0.637695        -0.154767
 C         3.181512         1.337403        -1.150402
 O         1.743648         1.090779        -0.970025
 C         3.497805        -0.719729         0.259262
 O         2.213608        -1.089271        -0.172249
 H        -0.266568        -0.937532         0.661784
 H        -0.554050         0.525611        -0.398128
 H         0.034073        -0.910583        -1.098575
 H         1.780766         1.677770         1.644506
 H         1.558418         0.015541         2.222871
 H         3.973491         0.389374         2.296536
 H         5.103618         0.751842        -0.147424
 H         3.612265         2.503500        -1.068701
 H         3.338721         1.068651        -2.223402
 H         4.105451        -1.556618         0.228331
