19
Iteration:  4635charge 0 multiplicity 1
 C        -0.017011        -0.122215        -0.115564
 C         1.477608        -0.063232         0.020161
 C         1.964120         0.600779         1.342551
 C         3.427072         0.388888         1.219313
 C         4.017107         0.666294        -0.189639
 C         3.103818         1.490612        -0.992166
 O         1.826535         0.937876        -0.980190
 C         3.552761        -0.700950         0.237479
 O         2.239215        -1.183070        -0.183460
 H        -0.304510        -0.774387         0.630069
 H        -0.304537         0.887676         0.186687
 H        -0.331726        -0.225949        -1.186336
 H         1.492201         1.588468         1.533979
 H         1.672252        -0.021896         2.167626
 H         4.177712         0.552940         2.001071
 H         5.152788         0.757754        -0.281112
 H         3.255794         2.544451        -0.637420
 H         3.440809         1.645478        -2.019489
 H         4.196650        -1.540857         0.502274
