19
Iteration:  4322charge 0 multiplicity 1
 C        -0.024715        -0.327861        -0.122415
 C         1.445124         0.101243         0.030217
 C         1.946177         0.667235         1.355194
 C         3.473027         0.393994         1.266628
 C         4.038411         0.600703        -0.125416
 C         3.176040         1.346095        -1.149348
 O         1.708652         1.134474        -0.924386
 C         3.559735        -0.776472         0.339454
 O         2.289395        -1.071599        -0.260460
 H        -0.227551        -1.365995         0.230835
 H        -0.698194         0.491528         0.344744
 H        -0.186716        -0.438530        -1.225559
 H         1.752905         1.723921         1.448527
 H         1.481150         0.142716         2.257503
 H         4.079991         0.328100         2.124537
 H         5.113880         0.570088        -0.142359
 H         3.333934         2.523776        -0.985817
 H         3.534437         1.136419        -2.213925
 H         4.285785        -1.546971         0.535218
