19
Iteration:   514charge 0 multiplicity 1
 C        -0.022441        -0.350933         0.045287
 C         1.450919         0.174919         0.017418
 C         1.904019         0.710951         1.353671
 C         3.404911         0.347084         1.388938
 C         4.124235         0.641115        -0.148850
 C         3.165778         1.153142        -1.250610
 O         1.700735         1.132961        -1.025326
 C         3.623135        -0.708331         0.311170
 O         2.284576        -1.019839        -0.270804
 H        -0.055066        -0.997328         1.002235
 H        -0.718485         0.480258         0.183893
 H        -0.334841        -0.761409        -0.927544
 H         1.711496         1.806736         1.575636
 H         1.507926         0.140280         2.085051
 H         4.052669         0.515424         2.290030
 H         5.194976         0.830725        -0.199653
 H         3.349191         2.202983        -1.448847
 H         3.321917         0.642938        -2.181371
 H         4.203998        -1.652393         0.298486
