19
Iteration:  2313charge 0 multiplicity 1
 C        -0.076642        -0.293708        -0.075067
 C         1.443554         0.056921         0.054083
 C         1.949078         0.677633         1.304257
 C         3.528008         0.457825         1.180364
 C         4.113278         0.568053        -0.217272
 C         3.205129         1.458776        -1.126502
 O         1.755154         1.006730        -1.006616
 C         3.544640        -0.746543         0.310546
 O         2.174688        -1.100486        -0.076367
 H        -0.148794        -1.280738         0.306376
 H        -0.570381         0.427525         0.560753
 H        -0.640866        -0.402827        -1.079449
 H         1.706627         1.711107         1.498201
 H         1.740074         0.074847         2.148855
 H         4.133987         0.583999         2.032134
 H         5.183161         0.547268        -0.327793
 H         3.499233         2.495164        -0.795463
 H         3.398645         1.488582        -2.161878
 H         4.139448        -1.667258         0.528160
