19
Iteration:  3658charge 0 multiplicity 1
 C        -0.018185        -0.184395        -0.078557
 C         1.509117         0.099055        -0.100681
 C         2.027143         0.699674         1.347093
 C         3.488372         0.281512         1.246370
 C         4.014185         0.626399        -0.112093
 C         3.088367         1.547451        -0.937283
 O         1.839011         0.818021        -1.174973
 C         3.509351        -0.735939         0.239501
 O         2.193590        -1.093098        -0.077994
 H        -0.299919        -0.924163         0.635523
 H        -0.622515         0.756045        -0.054682
 H        -0.360954        -0.583902        -1.145063
 H         1.869437         1.717702         1.596123
 H         1.543734         0.032281         2.130628
 H         4.055994         0.294685         2.173875
 H         5.221414         0.654730        -0.189390
 H         2.835895         2.505349        -0.208814
 H         3.401865         2.049642        -1.886248
 H         4.221943        -1.491135         0.283476
