19
Iteration:  1417charge 0 multiplicity 1
 C        -0.097228        -0.325708        -0.070756
 C         1.470511         0.064361         0.100595
 C         1.965436         0.726029         1.330179
 C         3.460481         0.418455         1.240887
 C         4.084170         0.597714        -0.207877
 C         3.127725         1.322730        -1.136076
 O         1.706580         1.081892        -0.949380
 C         3.620882        -0.753043         0.352729
 O         2.285512        -1.085215        -0.239396
 H        -0.460967        -1.133499         0.642799
 H        -0.620633         0.606997         0.175666
 H        -0.230511        -0.496606        -1.149688
 H         1.831949         1.758947         1.275564
 H         1.634184         0.248198         2.288173
 H         4.232002         0.508664         2.056034
 H         5.155933         0.944254        -0.163561
 H         3.214709         2.389240        -1.200659
 H         3.446266         0.935736        -2.185143
 H         4.144621        -1.689500         0.513784
