19
Iteration:   755
 C         0.017866        -0.243141         0.029584
 C         1.433697         0.173530         0.059069
 C         1.998622         0.697687         1.333256
 C         3.476478         0.368418         1.264360
 C         4.011156         0.720436        -0.017337
 C         3.155791         1.169819        -1.213091
 O         1.693453         1.069296        -1.106395
 C         3.573941        -0.747222         0.235649
 O         2.238101        -1.066767        -0.165530
 H        -0.172103        -1.102256         0.543440
 H        -0.724305         0.491539         0.327968
 H        -0.184168        -0.576345        -0.986724
 H         1.775226         1.847300         1.589743
 H         1.882686         0.017414         2.200827
 H         4.038848         0.344896         2.185374
 H         5.087953         0.984900        -0.131461
 H         3.508823         2.161323        -1.459296
 H         3.379755         0.363211        -2.008111
 H         4.291857        -1.612812         0.336233
