19
Iteration:  2684
 C         0.003129        -0.223465        -0.055034
 C         1.499532        -0.013112         0.048339
 C         1.989719         0.825303         1.288513
 C         3.405980         0.263763         1.306661
 C         4.014715         0.557534        -0.214926
 C         3.140042         1.528225        -0.923167
 O         1.724475         1.000937        -1.098015
 C         3.604904        -0.766831         0.283568
 O         2.237554        -1.157181        -0.228855
 H        -0.260027        -0.921623         0.811364
 H        -0.665348         0.638824        -0.068747
 H        -0.210349        -0.796850        -0.910602
 H         2.017708         1.926097         0.957374
 H         1.538743         0.598270         2.270590
 H         4.155074         0.445475         2.092579
 H         5.083983         0.676250        -0.299364
 H         3.017864         2.480510        -0.397518
 H         3.581465         1.671733        -1.925507
 H         4.255286        -1.659271         0.433953
