19
Iteration:  4538charge 0 multiplicity 1
 C        -0.014585        -0.269197        -0.183079
 C         1.444453         0.109125         0.053200
 C         1.932485         0.495431         1.396221
 C         3.478321         0.412537         1.273892
 C         4.085219         0.634100        -0.155118
 C         3.150176         1.333171        -1.234489
 O         1.708234         1.202204        -0.857913
 C         3.564133        -0.712188         0.298827
 O         2.253642        -1.114089        -0.209059
 H        -0.311348        -1.001850         0.478086
 H        -0.591521         0.661244         0.089185
 H        -0.087261        -0.500578        -1.295330
 H         1.532553         1.443049         1.750504
 H         1.675170        -0.351300         2.104736
 H         4.073916         0.621872         2.179186
 H         5.233279         0.589889        -0.075852
 H         3.358999         2.394468        -1.430957
 H         3.415197         0.702477        -2.121463
 H         4.430156        -1.371544         0.550699
