19
Iteration:  3367
 C         0.037128        -0.357397        -0.134865
 C         1.465010         0.173787         0.010542
 C         1.938772         0.591758         1.499538
 C         3.407457         0.320613         1.260782
 C         4.004043         0.728336        -0.052303
 C         3.191818         1.166356        -1.253044
 O         1.747516         1.218578        -0.834183
 C         3.536057        -0.769997         0.231021
 O         2.287401        -0.960403        -0.298296
 H        -0.343365        -0.825024         0.731772
 H        -0.576188         0.538920        -0.350023
 H         0.010262        -1.055138        -1.013491
 H         1.619137         1.605595         1.656398
 H         1.556787        -0.035877         2.303068
 H         3.954955         0.273642         2.190814
 H         5.221485         0.890374        -0.174355
 H         3.305276         2.168774        -1.554645
 H         3.450787         0.462804        -2.090663
 H         4.084579        -1.754027         0.232563
