19
Iteration:   369charge 0 multiplicity 1
 C         0.056677        -0.313310         0.083882
 C         1.473609         0.103273        -0.028933
 C         1.899241         0.718673         1.303898
 C         3.428337         0.467403         1.229666
 C         4.008158         0.474881        -0.161075
 C         3.184682         1.390775        -1.041857
 O         1.801874         1.005928        -1.168831
 C         3.531413        -0.746825         0.277229
 O         2.244512        -1.061292        -0.139415
 H         0.021773        -1.131366         0.846926
 H        -0.668019         0.569658         0.374083
 H        -0.408509        -0.587482        -0.932030
 H         1.533855         1.811523         1.398285
 H         1.499334         0.134534         2.140194
 H         4.117184         0.649678         2.037029
 H         5.089578         0.713829        -0.184046
 H         3.237186         2.403919        -0.538973
 H         3.483099         1.386820        -2.065570
 H         4.174368        -1.580865         0.440375
