19
Iteration:   359
 C        -0.021362        -0.274089        -0.025731
 C         1.480727         0.073559         0.049833
 C         1.925976         0.650903         1.354189
 C         3.494587         0.533164         1.274564
 C         4.009413         0.564867        -0.194187
 C         3.219210         1.403487        -1.120440
 O         1.769198         1.023214        -1.155184
 C         3.542153        -0.819537         0.280358
 O         2.221810        -1.092054        -0.094077
 H        -0.191868        -1.165381         0.671903
 H        -0.770736         0.501875         0.381277
 H        -0.248601        -0.779123        -1.016346
 H         1.620037         1.769872         1.431168
 H         1.580772         0.161746         2.212880
 H         4.129334         0.863213         2.086953
 H         5.118980         0.615527        -0.162300
 H         3.254301         2.471967        -0.701722
 H         3.637916         1.489933        -2.066066
 H         4.011457        -1.792140         0.269213
