19
Iteration:   864
 C        -0.094150        -0.254232         0.073937
 C         1.491006         0.002898        -0.045633
 C         1.959549         0.704161         1.217934
 C         3.464586         0.426505         1.220214
 C         4.059222         0.577641        -0.165285
 C         3.163594         1.433983        -1.093417
 O         1.761163         1.028632        -1.073138
 C         3.592819        -0.784512         0.297519
 O         2.244267        -1.127900        -0.091114
 H        -0.186406        -0.713913         0.995309
 H        -0.533512         0.778225         0.192178
 H        -0.600288        -0.744499        -0.732178
 H         1.778104         1.907797         1.231277
 H         1.569196         0.328258         2.203657
 H         4.111176         0.341675         2.105270
 H         5.119903         0.690240        -0.242311
 H         3.263864         2.517516        -0.763988
 H         3.284062         1.430009        -2.148838
 H         4.274315        -1.606080         0.267482
