19
Iteration:  2760
 C         0.014499        -0.166375        -0.188833
 C         1.443701         0.090197         0.085103
 C         1.871976         0.543512         1.342838
 C         3.431116         0.465863         1.260785
 C         4.069600         0.680699        -0.139606
 C         3.069216         1.103941        -1.213113
 O         1.748576         1.194478        -0.809751
 C         3.606509        -0.709855         0.344512
 O         2.375979        -1.106768        -0.289233
 H        -0.556172        -1.177651         0.052307
 H        -0.552609         0.565518         0.412247
 H        -0.145768        -0.038416        -1.208379
 H         1.485854         1.650242         1.676147
 H         1.669793         0.011355         2.324142
 H         4.105955         0.455924         2.123462
 H         5.122180         0.955541        -0.292823
 H         3.230853         2.079034        -1.465000
 H         3.085498         0.231975        -1.915181
 H         4.293125        -1.598984         0.526789
