19
Iteration:   905charge 0 multiplicity 1
 C         0.064891        -0.229628        -0.131410
 C         1.467007         0.079903         0.046898
 C         1.994730         0.638800         1.460582
 C         3.501135         0.410993         1.293299
 C         3.997119         0.639621        -0.216715
 C         3.077319         1.225824        -1.217739
 O         1.753378         0.987757        -0.996180
 C         3.544787        -0.703825         0.293116
 O         2.225701        -0.977989        -0.121352
 H        -0.282728        -1.052293         0.497483
 H        -0.493238         0.637641         0.335860
 H        -0.354558        -0.342828        -1.166293
 H         1.729028         1.614817         1.631318
 H         1.564793         0.044706         2.255925
 H         4.221880         0.517831         2.108762
 H         5.075289         0.754696        -0.276668
 H         3.190426         2.316978        -1.377867
 H         3.563401         0.821092        -2.130644
 H         4.160927        -1.580854         0.217167
