19
Iteration:  2231charge 0 multiplicity 1
 C         0.032139        -0.252420         0.000798
 C         1.509533         0.102434        -0.006348
 C         1.928835         0.657454         1.322356
 C         3.450947         0.497631         1.178550
 C         4.030890         0.541837        -0.239159
 C         3.162381         1.441964        -1.096293
 O         1.784044         1.010455        -0.981358
 C         3.510569        -0.791091         0.247922
 O         2.207305        -1.143357        -0.080343
 H        -0.218186        -0.843131         0.861894
 H        -0.548781         0.683356         0.083299
 H        -0.126637        -0.712418        -0.959896
 H         1.651712         1.737786         1.442468
 H         1.449764         0.101427         2.173423
 H         4.171913         0.574240         1.996434
 H         5.121587         0.695220        -0.276340
 H         3.353931         2.447447        -0.700319
 H         3.352450         1.265743        -2.242420
 H         4.231218        -1.575278         0.262645
