19
Iteration:  3824charge 0 multiplicity 1
 C         0.001405        -0.236962        -0.095339
 C         1.492057         0.072424        -0.005960
 C         1.963829         0.612619         1.424159
 C         3.419484         0.330243         1.349068
 C         3.984603         0.642430        -0.128710
 C         3.179894         1.437551        -1.152713
 O         1.847226         1.066449        -1.083470
 C         3.520385        -0.740525         0.226564
 O         2.199458        -1.139769        -0.160426
 H        -0.137363        -0.998996         0.765516
 H        -0.447283         0.750962        -0.040648
 H        -0.297619        -0.655944        -1.000213
 H         1.588598         1.590100         1.542819
 H         1.583544        -0.057475         2.229692
 H         4.061849         0.422514         2.217243
 H         5.019605         1.070760        -0.117431
 H         3.093307         2.535692        -0.783764
 H         3.565341         1.247362        -2.200177
 H         4.288940        -1.522702         0.426835
