19
Iteration:  1578charge 0 multiplicity 1
 C        -0.016701        -0.262333        -0.128963
 C         1.434031         0.047253         0.026915
 C         1.971579         0.560033         1.404460
 C         3.416190         0.494887         1.235372
 C         4.049597         0.627926        -0.148249
 C         3.102909         1.131095        -1.284749
 O         1.710980         1.292570        -0.882563
 C         3.653664        -0.714953         0.345557
 O         2.329384        -1.109502        -0.164397
 H        -0.339471        -1.093596         0.594112
 H        -0.519030         0.660220         0.139403
 H        -0.538605        -0.415804        -1.128983
 H         1.536326         1.613017         1.643206
 H         1.805757        -0.142889         2.240785
 H         4.095172         0.600354         2.088396
 H         5.102268         0.993484        -0.314693
 H         3.427340         2.075662        -1.789214
 H         2.979430         0.398521        -2.048386
 H         4.278850        -1.589603         0.475920
