19
Iteration:   911charge 0 multiplicity 1
 C         0.004162        -0.245260        -0.144299
 C         1.495966         0.109640         0.120878
 C         2.010696         0.621186         1.434849
 C         3.488947         0.352901         1.323047
 C         4.017212         0.690914        -0.186335
 C         3.120576         1.200767        -1.223232
 O         1.708023         1.022969        -1.027126
 C         3.567312        -0.678123         0.268842
 O         2.236172        -0.993120        -0.110160
 H        -0.333536        -1.159034         0.446049
 H        -0.552309         0.577262         0.233117
 H        -0.157625        -0.279126        -1.232153
 H         1.719491         1.763217         1.574080
 H         1.593887         0.093334         2.340848
 H         4.262871         0.495545         2.065636
 H         5.087740         0.831893        -0.509318
 H         3.227323         2.273989        -1.411334
 H         3.366576         0.634885        -2.195147
 H         4.024788        -1.703791         0.313688
