19
Iteration:   547
 C         0.023753        -0.243580        -0.084838
 C         1.488892         0.038021         0.056470
 C         1.937463         0.670738         1.438858
 C         3.472872         0.567834         1.236209
 C         4.024061         0.577325        -0.191547
 C         3.150973         1.291406        -1.244535
 O         1.778159         1.067353        -0.960292
 C         3.537907        -0.684733         0.287083
 O         2.207161        -1.202700        -0.143959
 H        -0.268048        -1.164287         0.539677
 H        -0.358926         0.651943         0.381905
 H        -0.301117        -0.384805        -1.134115
 H         1.364453         1.626774         1.600491
 H         1.673947         0.022387         2.182624
 H         4.062485         0.905544         2.105337
 H         5.099155         0.703098        -0.416825
 H         3.390299         2.338022        -1.091994
 H         3.495658         0.955765        -2.219707
 H         4.250115        -1.470048         0.298260
