19
Iteration:  4940
 C        -0.032468        -0.314150        -0.077331
 C         1.410778         0.052203        -0.019616
 C         1.959606         0.615696         1.365229
 C         3.517065         0.352776         1.297275
 C         4.112110         0.558478        -0.134676
 C         3.136021         1.334532        -1.131153
 O         1.700957         1.226081        -0.892063
 C         3.558661        -0.722940         0.309817
 O         2.282889        -1.033163        -0.325845
 H        -0.231652        -0.855343         0.833456
 H        -0.703347         0.544047        -0.040737
 H        -0.304509        -0.888493        -1.050371
 H         1.450844         1.601924         1.629990
 H         1.679141        -0.039320         2.152628
 H         4.140938         0.213242         2.169917
 H         5.090642         0.700991        -0.176774
 H         3.370534         2.479981        -1.170824
 H         3.393090         0.866897        -2.124756
 H         4.237714        -1.593764         0.494487
