19
Iteration:   215
 C        -0.018489        -0.193486        -0.159919
 C         1.488772         0.055428         0.059182
 C         1.986015         0.677631         1.462965
 C         3.488563         0.474853         1.246012
 C         3.961744         0.591589        -0.246378
 C         3.122904         1.398180        -1.156513
 O         1.792174         0.999865        -1.024862
 C         3.568028        -0.758039         0.326079
 O         2.255553        -1.172752        -0.100897
 H        -0.384421        -1.108034         0.390561
 H        -0.825861         0.573001         0.205260
 H        -0.350629        -0.509222        -1.229051
 H         1.739586         1.744368         1.510921
 H         1.611981         0.100067         2.324425
 H         4.264513         0.607351         2.035598
 H         5.025957         0.815316        -0.337591
 H         3.143079         2.548268        -1.022655
 H         3.388982         1.295511        -2.208851
 H         4.261620        -1.633623         0.516545
