19
Iteration:  3506
 C        -0.006120        -0.339348        -0.126177
 C         1.439142         0.132661         0.044489
 C         1.974996         0.678490         1.369171
 C         3.424316         0.282628         1.249398
 C         4.036724         0.596055        -0.072170
 C         3.193385         1.485730        -1.095406
 O         1.774561         1.104009        -1.099583
 C         3.576799        -0.809608         0.217005
 O         2.196644        -1.047739        -0.076590
 H        -0.224627        -1.032385         0.682163
 H        -0.818309         0.442859        -0.108965
 H         0.029367        -1.000718        -1.069858
 H         1.760612         1.737938         1.505108
 H         1.430902        -0.008977         2.150145
 H         4.174563         0.406261         2.055019
 H         5.146003         0.822645        -0.133104
 H         3.131328         2.544154        -0.909096
 H         3.715350         1.232120        -2.092346
 H         4.247326        -1.732228         0.252343
