19
Iteration:   568
 C        -0.131108        -0.181539        -0.208403
 C         1.485576         0.114007         0.091875
 C         2.046826         0.669544         1.385884
 C         3.509187         0.391057         1.205718
 C         4.009312         0.621547        -0.206443
 C         3.061499         1.371533        -1.163587
 O         1.697111         0.906514        -1.006226
 C         3.628578        -0.735067         0.325697
 O         2.305018        -1.088450        -0.026001
 H        -0.364711        -1.143129         0.323865
 H        -0.598150         0.678132         0.176311
 H        -0.181650        -0.245923        -1.294713
 H         1.833700         1.812835         1.436635
 H         1.708265         0.181063         2.241903
 H         4.272969         0.410096         1.994193
 H         5.041353         1.016153        -0.305073
 H         3.173948         2.449282        -1.037998
 H         3.461482         1.006968        -2.192881
 H         4.104432        -1.647531         0.558028
