19
Iteration:  1982
 C         0.003433        -0.360051        -0.099940
 C         1.454738         0.136510         0.030711
 C         1.923580         0.671828         1.349259
 C         3.452691         0.469348         1.144432
 C         4.062295         0.552677        -0.198862
 C         3.094230         1.154158        -1.235324
 O         1.769935         1.312673        -0.716332
 C         3.587308        -0.766250         0.315591
 O         2.304060        -1.091869        -0.218346
 H        -0.222763        -0.737043         0.873636
 H        -0.606513         0.568851        -0.325178
 H        -0.245309        -1.102200        -0.881166
 H         1.550052         1.673029         1.404135
 H         1.627312         0.108434         2.191011
 H         3.959539         0.663083         2.079878
 H         5.168442         0.620977        -0.338739
 H         3.399090         2.130762        -1.579593
 H         2.883733         0.574935        -2.082995
 H         4.173799        -1.694372         0.498860
