19
Iteration:  3093
 C        -0.110923        -0.149035        -0.071349
 C         1.476304         0.044485         0.028586
 C         1.931503         0.582559         1.318028
 C         3.455410         0.412737         1.233614
 C         4.080626         0.610202        -0.098809
 C         3.147072         1.468176        -1.034125
 O         1.748003         0.958212        -1.076145
 C         3.617432        -0.735625         0.258633
 O         2.275296        -1.146161        -0.190650
 H        -0.367045        -0.985702         0.607943
 H        -0.398473         0.777064         0.335664
 H        -0.421807        -0.252750        -1.030904
 H         1.665406         1.579820         1.413956
 H         1.411533        -0.018875         2.154591
 H         4.097004         0.210330         2.129369
 H         5.162694         0.939516        -0.184672
 H         3.028818         2.504035        -0.732548
 H         3.633153         1.515437        -1.992050
 H         4.452627        -1.445991         0.493362
