19
Iteration:  1684
 C        -0.056448        -0.152534        -0.037275
 C         1.442162         0.028978         0.011762
 C         2.106895         0.766134         1.266529
 C         3.531290         0.303431         1.280889
 C         3.999774         0.696839        -0.074049
 C         3.002032         1.469865        -0.990596
 O         1.798627         0.754785        -1.161944
 C         3.561975        -0.685847         0.224721
 O         2.227630        -1.107651        -0.094501
 H        -0.443021        -0.783600         0.796260
 H        -0.571730         0.809449         0.006988
 H        -0.231315        -0.707482        -0.895461
 H         2.310331         1.843717         1.409601
 H         1.577309         0.413433         2.118807
 H         4.208242         0.218027         2.135599
 H         5.054371         0.739850        -0.399943
 H         2.864474         2.500114        -0.656728
 H         3.319737         1.588121        -2.083317
 H         4.244670        -1.485109         0.033783
