19
Iteration:  4102charge 0 multiplicity 1
 C         0.051506        -0.289330        -0.127533
 C         1.501109         0.075221        -0.011938
 C         1.924538         0.756748         1.357847
 C         3.406425         0.320638         1.289614
 C         4.016751         0.606347        -0.157638
 C         3.148388         1.432586        -1.055077
 O         1.796610         0.991063        -0.952449
 C         3.520462        -0.799239         0.300242
 O         2.251179        -1.051762        -0.221519
 H        -0.265428        -1.114509         0.601473
 H        -0.605885         0.607055        -0.077601
 H        -0.130510        -0.546765        -1.233096
 H         1.895611         1.893937         1.337847
 H         1.539125         0.462428         2.357526
 H         4.058453         0.289630         2.144115
 H         5.127522         0.685188        -0.264189
 H         3.053510         2.468997        -0.859843
 H         3.476433         1.310268        -2.134456
 H         4.062907        -1.697815         0.314917
