19
Iteration:  4198
 C        -0.010263        -0.318136        -0.201108
 C         1.470119         0.182809         0.037413
 C         1.934167         0.584831         1.422475
 C         3.435317         0.367532         1.345975
 C         4.031237         0.636165        -0.108840
 C         3.151541         1.272888        -1.187447
 O         1.750175         1.177694        -0.985003
 C         3.597415        -0.737631         0.291207
 O         2.241693        -1.061241        -0.145309
 H        -0.281669        -1.137020         0.489473
 H        -0.705736         0.492600        -0.277563
 H        -0.022351        -0.816227        -1.228466
 H         1.662558         1.653563         1.703523
 H         1.481890        -0.079237         2.128800
 H         4.172545         0.336289         2.164148
 H         5.120270         0.665736        -0.321811
 H         3.486381         2.392215        -1.228737
 H         3.299400         0.828993        -2.192733
 H         4.405249        -1.425971         0.207547
