19
Iteration:  3533
 C         0.033135        -0.248951        -0.241000
 C         1.471298         0.076549         0.074721
 C         1.946342         0.606021         1.457986
 C         3.455310         0.419790         1.293038
 C         3.986694         0.608076        -0.103428
 C         3.135953         1.277848        -1.201838
 O         1.777038         1.144825        -0.891769
 C         3.541866        -0.742117         0.328813
 O         2.266208        -1.068075        -0.265168
 H        -0.359822        -0.782090         0.667227
 H        -0.584658         0.610928        -0.343799
 H         0.028549        -0.895379        -1.065202
 H         1.532924         1.631608         1.599017
 H         1.512259         0.013175         2.183859
 H         4.252629         0.377599         2.003018
 H         5.007854         0.671364        -0.367422
 H         3.106909         2.507246        -1.271507
 H         3.504750         0.808632        -2.127400
 H         4.265580        -1.506275         0.486330
