19
Iteration:  4175
 C        -0.016843        -0.227099        -0.259677
 C         1.441148         0.007748         0.112871
 C         1.932314         0.600470         1.416225
 C         3.394838         0.445851         1.261312
 C         4.050421         0.699596        -0.057283
 C         3.104887         1.133583        -1.201544
 O         1.758199         1.170409        -0.815120
 C         3.587626        -0.766294         0.343027
 O         2.350576        -1.034057        -0.339468
 H        -0.457315        -0.984241         0.292618
 H        -0.414787         0.725734         0.011148
 H        -0.272963        -0.381236        -1.350242
 H         1.658319         1.660492         1.508350
 H         1.667788         0.118942         2.316363
 H         4.174566         0.543620         2.005397
 H         5.007813         1.027387        -0.003683
 H         3.316639         2.205389        -1.714315
 H         3.208530         0.396285        -1.994937
 H         4.246280        -1.589987         0.577024
