19
Iteration:  3576
 C        -0.009544        -0.198389        -0.152216
 C         1.507428         0.099262         0.011924
 C         1.872164         0.496139         1.482086
 C         3.416355         0.402723         1.316776
 C         3.983879         0.707928        -0.087110
 C         3.128563         1.148909        -1.307047
 O         1.820023         1.208199        -0.895632
 C         3.571146        -0.694568         0.301027
 O         2.331684        -1.040246        -0.259179
 H        -0.388657        -1.030999         0.540852
 H        -0.629718         0.639618         0.097058
 H        -0.121239        -0.575436        -1.129975
 H         1.396295         1.467353         1.761922
 H         1.644083        -0.318510         2.124243
 H         3.889535         0.499717         2.262864
 H         5.037251         0.896506        -0.122024
 H         3.567848         2.196379        -1.749683
 H         3.217932         0.229005        -1.935642
 H         4.130828        -1.594935         0.391394
