19
Iteration:   841
 C         0.047849        -0.250139         0.033647
 C         1.452101         0.171315         0.089534
 C         2.026380         0.791689         1.375160
 C         3.532739         0.332410         1.238010
 C         3.989060         0.612825        -0.135150
 C         3.080182         1.408058        -1.025859
 O         1.782460         0.854435        -1.204309
 C         3.475157        -0.763650         0.240965
 O         2.196348        -1.124094        -0.173814
 H        -0.223715        -0.768856         0.913914
 H        -0.575554         0.628767        -0.211465
 H         0.167790        -0.798691        -0.925425
 H         2.104819         2.031842         1.422586
 H         1.509101         0.516101         2.355414
 H         4.231922         0.426030         2.074296
 H         5.060553         0.799506        -0.311589
 H         2.981465         2.541188        -0.809245
 H         3.364252         1.402686        -2.036771
 H         4.277454        -1.480967         0.324662
