19
Iteration:  1601charge 0 multiplicity 1
 C         0.048945        -0.238371        -0.160679
 C         1.432851         0.147747         0.140553
 C         1.959966         0.652610         1.448750
 C         3.511913         0.416001         1.294329
 C         3.980164         0.686615        -0.098725
 C         3.038539         1.099775        -1.292576
 O         1.732033         1.062285        -0.861225
 C         3.605741        -0.714550         0.255836
 O         2.321650        -1.022484        -0.243474
 H        -0.408658        -1.092764         0.435117
 H        -0.580438         0.630098        -0.132517
 H        -0.122182        -0.434253        -1.291226
 H         1.855299         1.743741         1.405799
 H         1.481495         0.238916         2.355458
 H         4.187345         0.379104         2.094219
 H         5.045765         0.893550        -0.257422
 H         3.199044         2.170314        -1.619329
 H         3.103769         0.452904        -2.134441
 H         4.250233        -1.585194         0.327165
