19
Iteration:  3306charge 0 multiplicity 1
 C        -0.015289        -0.188206        -0.109858
 C         1.511188         0.019359         0.039581
 C         1.910420         0.630282         1.380253
 C         3.437798         0.398956         1.288955
 C         4.044611         0.620547        -0.120860
 C         3.150320         1.428773        -1.102844
 O         1.759798         1.012263        -0.994917
 C         3.590783        -0.759322         0.221263
 O         2.253864        -1.167711        -0.211476
 H        -0.400732        -1.040611         0.501097
 H        -0.615781         0.708302         0.099389
 H        -0.406809        -0.324727        -1.156115
 H         1.857438         1.810347         1.462586
 H         1.533101         0.310283         2.375313
 H         4.067806         0.562048         2.214265
 H         5.022809         0.817012        -0.360500
 H         3.216638         2.526294        -0.627045
 H         3.400898         1.508648        -2.166703
 H         4.355362        -1.580248         0.347482
