19
Iteration:   794charge 0 multiplicity 1
 C        -0.033753        -0.171176        -0.052859
 C         1.463783         0.026249         0.083548
 C         1.990047         0.707817         1.355867
 C         3.445730         0.484612         1.082815
 C         4.040968         0.594115        -0.241064
 C         3.175050         1.400014        -1.134045
 O         1.756600         1.009605        -0.994626
 C         3.551214        -0.805804         0.350521
 O         2.253431        -1.200976        -0.078035
 H        -0.385334        -0.837163         0.848248
 H        -0.538783         0.785982        -0.073620
 H        -0.135471        -0.641754        -1.079949
 H         1.536106         1.659858         1.317981
 H         1.589078         0.184850         2.235231
 H         3.964707         0.559145         2.038740
 H         5.118759         0.855483        -0.437292
 H         3.112424         2.489636        -0.800759
 H         3.538532         1.451912        -2.167731
 H         4.250104        -1.658477         0.493912
