19
Iteration:  3156charge 0 multiplicity 1
 C        -0.055209        -0.366895        -0.185610
 C         1.444350         0.128398         0.021674
 C         1.910538         0.635476         1.351851
 C         3.486681         0.436028         1.285739
 C         4.008049         0.601828        -0.160056
 C         3.165849         1.206337        -1.175552
 O         1.753164         1.250253        -0.730174
 C         3.647517        -0.787466         0.328265
 O         2.308166        -1.021962        -0.328450
 H        -0.386287        -1.176572         0.521579
 H        -0.869431         0.356471        -0.051409
 H        -0.254800        -0.883632        -1.106806
 H         1.706593         1.676208         1.442275
 H         1.491967         0.200639         2.256002
 H         3.988623         0.649712         2.245725
 H         5.044974         0.775169        -0.141457
 H         3.462756         2.311060        -1.390132
 H         3.255048         0.637376        -2.118922
 H         4.097422        -1.805008         0.238567
