19
Iteration:  1073charge 0 multiplicity 1
 C         0.032110        -0.257967         0.004935
 C         1.490412         0.117740         0.056792
 C         2.040524         0.769922         1.313164
 C         3.441371         0.351411         1.304758
 C         3.925318         0.574290        -0.146939
 C         3.133059         1.484077        -1.078182
 O         1.811756         0.896536        -1.126438
 C         3.524870        -0.803233         0.247060
 O         2.204215        -1.099648        -0.116382
 H        -0.119370        -1.200999         0.620012
 H        -0.665322         0.482057         0.256450
 H        -0.201702        -0.460111        -1.031579
 H         2.000127         1.899779         1.336583
 H         1.516390         0.440877         2.151898
 H         4.149968         0.705415         2.048725
 H         5.001581         0.763007        -0.358689
 H         3.004051         2.585530        -0.868094
 H         3.586989         1.428732        -2.104426
 H         4.223794        -1.613367        -0.035221
