19
Iteration:  4374
 C        -0.061917        -0.296147        -0.119018
 C         1.431764         0.111170        -0.043718
 C         1.879485         0.483673         1.496460
 C         3.438439         0.452232         1.347755
 C         4.051105         0.650327        -0.157458
 C         3.201702         1.199598        -1.234012
 O         1.786192         1.208368        -0.908264
 C         3.634619        -0.695275         0.283385
 O         2.281929        -0.996861        -0.275782
 H        -0.359621        -0.967425         0.726491
 H        -0.790578         0.516932         0.090636
 H        -0.310936        -0.753183        -1.067028
 H         1.511634         1.450150         1.911896
 H         1.593808        -0.379342         2.102518
 H         4.017697         0.502032         2.223656
 H         5.198986         0.885678        -0.270082
 H         3.330027         2.224630        -1.521489
 H         3.377815         0.454153        -2.073147
 H         4.248461        -1.543899         0.486829
