19
Iteration:  1392
 C         0.040926        -0.365395        -0.068821
 C         1.470420         0.188344         0.041528
 C         1.909839         0.611816         1.423705
 C         3.475833         0.449489         1.317267
 C         3.985216         0.620848        -0.181768
 C         3.203421         1.240311        -1.282928
 O         1.758899         1.173576        -0.965281
 C         3.535482        -0.709047         0.275417
 O         2.218538        -1.053816        -0.154398
 H         0.174318        -1.171046         0.663269
 H        -0.742250         0.362409         0.392547
 H        -0.197602        -0.765922        -1.054603
 H         1.487188         1.561383         1.807866
 H         1.677826        -0.190776         2.042265
 H         4.292436         0.594891         2.016556
 H         5.059502         0.653122        -0.193632
 H         3.355031         2.284216        -1.630948
 H         3.461554         0.584203        -2.132317
 H         4.141327        -1.624887         0.261354
