19
Iteration:  2805
 C         0.085144        -0.316942        -0.099694
 C         1.532887         0.157030         0.069956
 C         1.933651         0.630122         1.424769
 C         3.404340         0.363672         1.284515
 C         4.031481         0.619881        -0.098993
 C         3.212304         1.335700        -1.211268
 O         1.734851         1.166419        -0.998464
 C         3.484142        -0.785877         0.191175
 O         2.203109        -1.034005        -0.148937
 H        -0.073401        -1.098906         0.753317
 H        -0.729789         0.392627        -0.246200
 H         0.271043        -0.946735        -0.980992
 H         1.585228         1.723728         1.727900
 H         1.446790        -0.173004         2.095069
 H         4.072136         0.233032         2.101213
 H         5.118881         0.771084        -0.231743
 H         3.430086         2.354455        -1.283433
 H         3.230037         0.735492        -2.143894
 H         4.236481        -1.514455         0.391502
