19
Iteration:   592
 C        -0.012750        -0.235899        -0.054733
 C         1.463044         0.090542         0.003566
 C         2.062542         0.794251         1.403737
 C         3.542994         0.391050         1.316807
 C         3.995570         0.647317        -0.107264
 C         3.094025         1.434125        -1.094269
 O         1.717138         0.877721        -1.169027
 C         3.544786        -0.719241         0.252046
 O         2.198908        -1.175028        -0.086776
 H        -0.179400        -1.142666         0.527452
 H        -0.638547         0.648703         0.152887
 H         0.007066        -0.534852        -1.155237
 H         2.018803         1.882139         1.318371
 H         1.626851         0.512317         2.296154
 H         4.246678         0.396668         2.151017
 H         5.076638         0.474639        -0.421341
 H         3.021061         2.476575        -0.767822
 H         3.532534         1.381651        -2.087873
 H         4.149012        -1.546007        -0.009953
