19
Iteration:  3609
 C        -0.033730        -0.294770        -0.170153
 C         1.432070         0.156854         0.048124
 C         1.914176         0.659990         1.377281
 C         3.479657         0.373229         1.302107
 C         4.058086         0.564249        -0.113022
 C         3.157158         1.306958        -1.140692
 O         1.774481         1.109710        -0.961998
 C         3.537351        -0.761831         0.272982
 O         2.317570        -1.052586        -0.219353
 H        -0.114226        -1.185067         0.533103
 H        -0.748892         0.405391         0.241268
 H        -0.326781        -0.438422        -1.163342
 H         1.687617         1.722553         1.668195
 H         1.400490         0.096115         2.130833
 H         3.875205         0.390029         2.303809
 H         5.027541         0.895412        -0.203089
 H         3.280726         2.471691        -1.269982
 H         3.545617         0.957439        -2.127719
 H         4.172740        -1.655731         0.415898
