19
Iteration:  4479
 C        -0.031726        -0.245405        -0.009990
 C         1.458937         0.047169        -0.048066
 C         1.994494         0.676964         1.219335
 C         3.464870         0.338887         1.226050
 C         4.032296         0.599512        -0.071730
 C         3.134823         1.514376        -0.928336
 O         1.800901         1.040409        -1.093379
 C         3.562617        -0.775539         0.233272
 O         2.240126        -1.165721        -0.189357
 H        -0.026880        -1.166124         0.685677
 H        -0.504355         0.588179         0.452762
 H        -0.620458        -0.544058        -0.827576
 H         1.584192         1.733624         1.144394
 H         1.477219         0.260547         2.049160
 H         4.092414         0.368771         2.131322
 H         5.132579         0.821913        -0.203078
 H         2.939860         2.561205        -0.556358
 H         3.550397         1.693824        -1.931162
 H         4.132496        -1.565307         0.669955
