19
Iteration:  3352charge 0 multiplicity 1
 C         0.015539        -0.237487        -0.115070
 C         1.427333         0.127425         0.129687
 C         1.904006         0.499503         1.513915
 C         3.396906         0.324815         1.373136
 C         4.016425         0.670866        -0.132437
 C         3.147815         1.235466        -1.281217
 O         1.820919         1.132959        -0.944131
 C         3.591439        -0.666977         0.244737
 O         2.264570        -0.980402        -0.331830
 H        -0.329942        -0.887667         0.803762
 H        -0.687450         0.554283        -0.406077
 H         0.062106        -0.888012        -0.962961
 H         1.588312         1.509013         1.856930
 H         1.364048        -0.191996         2.237829
 H         4.253569         0.409924         2.030378
 H         4.955634         0.939483        -0.002532
 H         3.621397         2.195422        -1.539246
 H         3.302562         0.536292        -2.145384
 H         4.313831        -1.423652         0.297664
