19
Iteration:  2753
 C         0.024144        -0.149558        -0.176813
 C         1.488775         0.103762         0.023135
 C         1.891139         0.536031         1.445135
 C         3.407348         0.458016         1.258574
 C         4.023280         0.718721        -0.100351
 C         3.085145         1.083203        -1.233910
 O         1.745672         1.143690        -0.814261
 C         3.620415        -0.717680         0.326125
 O         2.332543        -1.114507        -0.274821
 H        -0.289757        -1.162704         0.052937
 H        -0.493166         0.624663         0.393403
 H        -0.196850         0.191274        -1.233369
 H         1.704584         1.632417         1.523970
 H         1.456866        -0.188422         2.206969
 H         4.047753         0.583945         2.108226
 H         5.074065         0.928408        -0.322867
 H         3.286124         2.124307        -1.603069
 H         3.080162         0.445002        -2.148795
 H         4.403752        -1.407415         0.500824
