19
Iteration:  4276
 C         0.073405        -0.085975        -0.077686
 C         1.537325         0.046446         0.011666
 C         2.003019         0.651440         1.354732
 C         3.451826         0.281509         1.328720
 C         3.963938         0.734855        -0.126786
 C         3.025345         1.561127        -0.971017
 O         1.828472         0.821776        -1.176521
 C         3.504693        -0.777159         0.237945
 O         2.246269        -1.181022        -0.148705
 H        -0.435230        -0.842345         0.651229
 H        -0.400713         0.919212         0.037507
 H        -0.138920        -0.551855        -1.045990
 H         1.666331         1.735786         1.459733
 H         1.533824         0.055787         2.164747
 H         4.008374         0.398662         2.267944
 H         5.116544         0.944469        -0.417285
 H         2.966651         2.726348        -0.647122
 H         3.337780         1.616015        -2.066817
 H         4.244016        -1.590049         0.252618
