19
Iteration:  2226charge 0 multiplicity 1
 C         0.073709        -0.246530        -0.029461
 C         1.453346         0.072551         0.026791
 C         1.943590         0.659056         1.283581
 C         3.445649         0.495325         1.152415
 C         4.010606         0.498969        -0.245318
 C         3.158673         1.407375        -1.114477
 O         1.758108         1.080864        -0.934845
 C         3.554980        -0.794708         0.319902
 O         2.224534        -1.112867        -0.103818
 H        -0.188401        -0.841298         0.881285
 H        -0.470985         0.707875         0.012286
 H        -0.064541        -0.907661        -1.032343
 H         1.691823         1.733641         1.356506
 H         1.493922         0.143350         2.132561
 H         4.078042         0.395570         2.039156
 H         5.066966         0.726723        -0.319045
 H         3.339405         2.468166        -0.808100
 H         3.163606         1.253078        -2.152380
 H         4.285509        -1.646265         0.337091
