19
Iteration:  3856charge 0 multiplicity 1
 C        -0.020837        -0.320879        -0.075051
 C         1.413542         0.135853        -0.036668
 C         2.042874         0.841399         1.249648
 C         3.446416         0.316761         1.320571
 C         4.060509         0.529382        -0.125461
 C         3.110752         1.445104        -0.870415
 O         1.790979         0.956563        -1.068748
 C         3.555754        -0.812230         0.221142
 O         2.231063        -1.089735        -0.245603
 H        -0.341356        -0.805437         0.921474
 H        -0.697604         0.525794        -0.125973
 H        -0.180462        -1.037661        -0.825662
 H         1.888826         1.856585         1.076295
 H         1.528177         0.571837         2.188273
 H         4.061563         0.534532         2.181664
 H         5.157763         0.914740        -0.191975
 H         2.889033         2.419695        -0.357730
 H         3.625482         1.850413        -1.796862
 H         4.214381        -1.708030         0.293936
