19
Iteration:  4751
 C         0.020788        -0.213794        -0.243481
 C         1.440235         0.125637         0.090470
 C         1.955904         0.486047         1.519083
 C         3.474830         0.347657         1.269357
 C         3.950964         0.740761        -0.087497
 C         3.133116         1.180525        -1.233425
 O         1.779452         1.108705        -0.864922
 C         3.545553        -0.692204         0.216474
 O         2.279488        -0.999756        -0.254255
 H        -0.366218        -0.708344         0.777628
 H        -0.561385         0.755893        -0.203599
 H        -0.217082        -0.712885        -1.175408
 H         1.790099         1.530603         1.936792
 H         1.682952        -0.198088         2.333550
 H         4.209412         0.203385         2.034066
 H         5.097639         1.017975         0.068421
 H         3.212323         2.148508        -1.653380
 H         3.435653         0.583256        -2.152328
 H         4.320782        -1.425450         0.120267
