19
Iteration:   325charge 0 multiplicity 1
 C         0.050616        -0.163443        -0.237073
 C         1.446412         0.039935         0.131352
 C         2.008061         0.697786         1.427961
 C         3.479315         0.410352         1.283837
 C         4.011176         0.655406        -0.143098
 C         3.060990         1.264241        -1.184146
 O         1.704919         0.972985        -0.940889
 C         3.602106        -0.747023         0.175691
 O         2.265488        -1.091163        -0.047977
 H        -0.356243        -0.899185         0.466012
 H        -0.444244         0.883237        -0.282845
 H         0.126021        -0.509086        -1.330150
 H         1.692930         1.750125         1.236665
 H         1.407793         0.340085         2.221144
 H         4.116874         0.424968         2.170333
 H         5.038487         0.905708        -0.465622
 H         3.155251         2.396374        -1.130147
 H         3.387575         0.912177        -2.112726
 H         4.249156        -1.580451         0.155913
