19
Iteration:  3185
 C         0.092078        -0.304218        -0.107965
 C         1.463572         0.147978         0.037129
 C         1.901445         0.548206         1.452941
 C         3.414252         0.385287         1.281063
 C         4.005186         0.667786        -0.131399
 C         3.207026         1.266810        -1.210520
 O         1.736882         1.178428        -0.877080
 C         3.596461        -0.739270         0.255917
 O         2.261967        -1.023129        -0.282123
 H        -0.315908        -0.910099         0.718620
 H        -0.583225         0.631474        -0.262330
 H        -0.173502        -1.001386        -1.063799
 H         1.507353         1.608042         1.901663
 H         1.425841        -0.216265         2.109456
 H         3.954365         0.412602         2.172438
 H         5.130683         0.794745        -0.074418
 H         3.442202         2.244879        -1.536839
 H         3.265183         0.632268        -2.146439
 H         4.014797        -1.712734         0.352648
