19
Iteration:  3098charge 0 multiplicity 1
 C        -0.107772        -0.149816        -0.082882
 C         1.485747         0.060293        -0.009482
 C         1.918228         0.570993         1.383736
 C         3.450551         0.404215         1.244696
 C         4.056000         0.662272        -0.123467
 C         3.160736         1.412004        -1.039174
 O         1.740245         0.967750        -1.078194
 C         3.607259        -0.733714         0.236017
 O         2.309458        -1.137691        -0.162258
 H        -0.282241        -0.977816         0.603049
 H        -0.546092         0.818476         0.339927
 H        -0.459417        -0.197663        -1.209485
 H         1.652582         1.682878         1.592618
 H         1.650114        -0.127042         2.176234
 H         3.990419         0.251531         2.153676
 H         5.113885         0.963170        -0.175340
 H         3.134784         2.472122        -0.691600
 H         3.652868         1.327225        -2.066672
 H         4.255758        -1.589405         0.353651
