19
Iteration:  3338charge 0 multiplicity 1
 C        -0.026287        -0.187397        -0.126195
 C         1.489826         0.105593        -0.013849
 C         1.926550         0.452888         1.491823
 C         3.438849         0.386925         1.309099
 C         3.998186         0.674422        -0.101561
 C         3.196136         1.244563        -1.238630
 O         1.714301         1.155797        -0.958736
 C         3.631594        -0.721161         0.282452
 O         2.294701        -1.052739        -0.231625
 H        -0.435184        -0.690631         0.750206
 H        -0.483481         0.801907        -0.116062
 H        -0.309318        -0.758326        -1.038504
 H         1.513393         1.498639         1.767613
 H         1.665235        -0.360135         2.181813
 H         3.964938         0.555601         2.269679
 H         5.033272         0.901400        -0.241175
 H         3.199229         2.415714        -1.328719
 H         3.445533         0.810879        -2.213564
 H         4.212900        -1.662737         0.324800
