19
Iteration:  1224charge 0 multiplicity 1
 C        -0.114025        -0.246025         0.011612
 C         1.402295         0.181201         0.008789
 C         2.012202         0.602539         1.402249
 C         3.533428         0.363802         1.267442
 C         3.994378         0.699760        -0.154147
 C         3.218118         1.421269        -1.131553
 O         1.801150         0.942470        -1.196064
 C         3.553137        -0.684316         0.229041
 O         2.273502        -1.125583        -0.026268
 H        -0.602968        -1.186135         0.552705
 H        -0.822685         0.508004         0.271693
 H        -0.312973        -0.539517        -1.096328
 H         1.652130         1.613067         1.731184
 H         1.489090        -0.222411         2.047442
 H         4.094210         0.463473         2.208016
 H         5.118347         0.722691        -0.362215
 H         3.184534         2.473058        -0.853490
 H         3.559903         1.260104        -2.157071
 H         4.064042        -1.594171         0.160645
