19
Iteration:  2162charge 0 multiplicity 1
 C         0.016022        -0.193318        -0.024118
 C         1.493072         0.130528         0.038383
 C         1.908779         0.536557         1.464806
 C         3.437223         0.430918         1.266147
 C         3.973236         0.666623        -0.201568
 C         3.137725         1.149023        -1.376442
 O         1.743038         1.202688        -0.892956
 C         3.624126        -0.728779         0.318449
 O         2.299475        -1.092757        -0.212277
 H        -0.330653        -0.589141         0.937623
 H        -0.568908         0.715264        -0.184576
 H        -0.285622        -0.856380        -0.930947
 H         1.467895         1.547713         1.724785
 H         1.567309        -0.202647         2.248801
 H         4.105693         0.490597         2.127547
 H         4.988185         0.983095        -0.037395
 H         3.378053         2.135377        -1.794383
 H         3.379528         0.322690        -2.078711
 H         4.343733        -1.568953         0.391981
