19
Iteration:   916charge 0 multiplicity 1
 C        -0.045940        -0.253486        -0.127087
 C         1.466700         0.148971         0.148435
 C         2.013721         0.653241         1.443496
 C         3.496586         0.329333         1.314091
 C         4.040134         0.701967        -0.128370
 C         3.144451         1.198096        -1.270001
 O         1.671763         1.059641        -1.033420
 C         3.595446        -0.692640         0.247114
 O         2.263064        -1.048639        -0.112535
 H        -0.322559        -1.221709         0.303980
 H        -0.729607         0.618153         0.149664
 H         0.025666        -0.319107        -1.255290
 H         1.809313         1.652658         1.485451
 H         1.619289         0.134344         2.293274
 H         4.230230         0.439668         2.118906
 H         5.033645         0.900133        -0.504978
 H         3.351661         2.268854        -1.448764
 H         3.198976         0.573871        -2.195193
 H         4.097117        -1.618206         0.411744
