19
Iteration:  4443charge 0 multiplicity 1
 C         0.041791        -0.364738        -0.095706
 C         1.452330         0.158039         0.007847
 C         2.035313         0.739660         1.359281
 C         3.480952         0.336054         1.287879
 C         4.032523         0.613316        -0.117739
 C         3.094234         1.529205        -0.944499
 O         1.809392         0.946163        -1.119772
 C         3.518397        -0.754306         0.177882
 O         2.153207        -1.079454        -0.190829
 H        -0.143738        -0.897075         0.818582
 H        -0.720674         0.442403        -0.002942
 H        -0.024079        -0.982783        -1.053637
 H         1.938458         1.783871         1.382811
 H         1.509019         0.251996         2.239592
 H         4.216063         0.067660         2.103230
 H         5.001897         0.629658        -0.271957
 H         3.154124         2.526457        -0.419775
 H         3.520194         1.496435        -1.926801
 H         4.083644        -1.646122         0.539928
