19
Iteration:  2304charge 0 multiplicity 1
 C        -0.066034        -0.238303        -0.011542
 C         1.407748        -0.018144        -0.001505
 C         1.961561         0.706281         1.284884
 C         3.528196         0.454930         1.215613
 C         4.080800         0.591350        -0.244871
 C         3.192692         1.511017        -1.093895
 O         1.795880         0.972310        -1.035426
 C         3.504346        -0.795730         0.312481
 O         2.241043        -1.178196        -0.089850
 H        -0.320511        -1.182181         0.461513
 H        -0.489930         0.562944         0.660250
 H        -0.412448         0.098105        -1.130140
 H         1.524835         1.747085         1.301818
 H         1.593604         0.214443         2.206630
 H         4.243065         0.681572         1.934569
 H         5.153378         0.700161        -0.413789
 H         3.136664         2.532189        -0.557751
 H         3.399081         1.653195        -2.123539
 H         4.078298        -1.636576         0.675161
