19
Iteration:  3170charge 0 multiplicity 1
 C        -0.030719        -0.368730        -0.133678
 C         1.428525         0.029628         0.042082
 C         1.931649         0.598886         1.428068
 C         3.389578         0.431654         1.244623
 C         4.077612         0.579572        -0.093310
 C         3.134739         1.211869        -1.222865
 O         1.786207         1.292978        -0.809726
 C         3.514012        -0.750966         0.315740
 O         2.323410        -0.992020        -0.351713
 H        -0.225831        -0.964205         0.747448
 H        -0.611365         0.495631        -0.200178
 H        -0.013698        -0.836670        -1.036486
 H         1.572224         1.578034         1.415100
 H         1.667884         0.020170         2.341076
 H         4.144106         0.422865         2.090435
 H         5.200405         0.919228        -0.259244
 H         3.472948         2.260032        -1.325521
 H         3.240120         0.687517        -2.162415
 H         4.258543        -1.543370         0.554649
