19
Iteration:  2157charge 0 multiplicity 1
 C        -0.042022        -0.163109        -0.050131
 C         1.492821         0.083013         0.040203
 C         1.933867         0.542696         1.449649
 C         3.410085         0.456252         1.263667
 C         3.969999         0.605508        -0.181016
 C         3.150760         1.164184        -1.351147
 O         1.746989         1.210269        -0.904871
 C         3.631958        -0.729930         0.344905
 O         2.328386        -1.104583        -0.229870
 H        -0.254534        -0.638656         0.971321
 H        -0.662484         0.778257         0.011665
 H        -0.314862        -0.845098        -0.809786
 H         1.462306         1.457765         1.662752
 H         1.739909        -0.167431         2.223545
 H         4.073833         0.695408         2.148440
 H         5.027099         1.013695        -0.250007
 H         3.367982         2.198840        -1.662402
 H         3.215528         0.435976        -2.183188
 H         4.377803        -1.491280         0.397672
