19
Iteration:  4325charge 0 multiplicity 1
 C         0.021305        -0.322663        -0.136593
 C         1.444048         0.096747         0.025497
 C         1.951812         0.688404         1.361305
 C         3.471172         0.398974         1.287212
 C         4.027637         0.581511        -0.104575
 C         3.160632         1.315186        -1.139559
 O         1.704581         1.147334        -0.913224
 C         3.525399        -0.769873         0.306572
 O         2.308685        -1.071067        -0.276890
 H        -0.159143        -1.273408         0.282606
 H        -0.665229         0.381718         0.359050
 H        -0.190710        -0.423349        -1.233937
 H         1.741780         1.742758         1.367457
 H         1.489166         0.206374         2.251933
 H         4.120966         0.353915         2.202414
 H         5.035630         0.660848        -0.117831
 H         3.387495         2.400713        -0.981204
 H         3.318099         1.031355        -2.212182
 H         4.290525        -1.530044         0.472951
