19
Iteration:  2105
 C        -0.010960        -0.309025        -0.048792
 C         1.482083         0.213301         0.045385
 C         2.072438         0.763189         1.394738
 C         3.555683         0.303259         1.294471
 C         3.878730         0.610184        -0.120091
 C         3.130956         1.435232        -1.152327
 O         1.797418         0.941163        -1.128530
 C         3.530880        -0.761470         0.198816
 O         2.176988        -1.120040        -0.044407
 H        -0.178282        -1.345385         0.420496
 H        -0.637334         0.395343         0.527132
 H        -0.208976        -0.411420        -1.134770
 H         2.103031         1.826960         1.337531
 H         1.451435         0.424512         2.251488
 H         4.369406         0.472761         2.072892
 H         4.908885         0.799483        -0.356693
 H         2.909217         2.510711        -1.058687
 H         3.532126         1.239504        -2.128236
 H         4.285439        -1.485843         0.040374
