19
Iteration:  2248charge 0 multiplicity 1
 C        -0.070714        -0.179717         0.008371
 C         1.375278         0.069993         0.087874
 C         2.055985         0.698423         1.402488
 C         3.512244         0.369523         1.250865
 C         3.981610         0.671340        -0.137957
 C         3.187440         1.490757        -1.110945
 O         1.855636         0.870430        -1.226201
 C         3.550702        -0.722590         0.207948
 O         2.181930        -1.156464        -0.093253
 H        -0.192545        -1.037323         0.704373
 H        -0.634113         0.662832         0.437528
 H        -0.431003        -0.629853        -1.043098
 H         1.733009         1.741041         1.600041
 H         1.716534         0.086076         2.235968
 H         4.125280         0.454467         2.136273
 H         5.039692         0.727425        -0.340538
 H         2.942406         2.520504        -0.784791
 H         3.549176         1.502636        -2.095122
 H         4.247162        -1.604915         0.297386
