19
Iteration:    76
 C        -0.110503        -0.181906        -0.197213
 C         1.419299         0.072532         0.110342
 C         2.050168         0.664880         1.404326
 C         3.521802         0.437722         1.321935
 C         3.989458         0.622823        -0.145506
 C         3.065983         1.288537        -1.225285
 O         1.663608         1.075153        -0.973798
 C         3.645087        -0.758241         0.333156
 O         2.365599        -1.191278        -0.167005
 H        -0.644077        -0.826118         0.361403
 H        -0.535816         0.787306        -0.135057
 H        -0.084854        -0.544472        -1.190293
 H         1.793506         1.834700         1.492624
 H         1.602219         0.327878         2.352481
 H         4.148572         0.636712         2.197782
 H         5.032772         0.859626        -0.364290
 H         3.268348         2.331730        -1.295609
 H         3.326039         0.809709        -2.249727
 H         4.455631        -1.495718         0.416613
