19
Iteration:  3668charge 0 multiplicity 1
 C        -0.051760        -0.122949        -0.116211
 C         1.428923         0.064794        -0.014291
 C         2.006127         0.646900         1.343245
 C         3.543043         0.326369         1.289699
 C         4.067501         0.694963        -0.127132
 C         3.064008         1.533410        -0.894816
 O         1.861009         0.839977        -1.244936
 C         3.522929        -0.760216         0.224992
 O         2.195365        -1.140099        -0.085201
 H        -0.275399        -0.744426         0.694121
 H        -0.609986         0.809818         0.032674
 H        -0.311655        -0.750116        -1.007786
 H         1.879154         1.655430         1.610795
 H         1.498039         0.014224         2.066782
 H         4.134019         0.301493         2.225417
 H         5.196392         0.902621        -0.356341
 H         2.661709         2.504421        -0.336545
 H         3.626195         1.752488        -1.814504
 H         4.138862        -1.627186         0.240602
