19
Iteration:  2274charge 0 multiplicity 1
 C         0.012042        -0.063172         0.006911
 C         1.473155         0.102083        -0.041623
 C         2.064800         0.755393         1.300581
 C         3.528015         0.250305         1.344972
 C         3.977725         0.695862        -0.077253
 C         3.011515         1.449239        -1.012366
 O         1.767318         0.735472        -1.214361
 C         3.586793        -0.753010         0.187113
 O         2.257956        -1.123927        -0.085055
 H        -0.315889        -1.061292         0.377190
 H        -0.388357         0.686437         0.745802
 H        -0.400024         0.066662        -1.041728
 H         1.862672         1.875516         1.277454
 H         1.368276         0.329742         2.098479
 H         4.196660         0.441550         2.192934
 H         5.031463         0.919936        -0.317729
 H         2.582641         2.356762        -0.625612
 H         3.424588         1.587196        -2.072719
 H         4.195829        -1.618261         0.199538
