19
Iteration:  4735charge 0 multiplicity 1
 C         0.015725        -0.165574        -0.066265
 C         1.504346         0.122371         0.047457
 C         1.973588         0.514752         1.466833
 C         3.424971         0.358160         1.319440
 C         3.986043         0.683032        -0.094112
 C         3.125796         1.281927        -1.186650
 O         1.715254         1.123975        -0.965496
 C         3.601750        -0.738635         0.237791
 O         2.285355        -1.089030        -0.299406
 H        -0.370688        -0.866646         0.571836
 H        -0.523577         0.735730        -0.196760
 H         0.061381        -0.572092        -1.099671
 H         1.516369         1.428224         1.751846
 H         1.507252        -0.242196         2.114556
 H         4.063033         0.578928         2.197908
 H         4.960861         0.877787        -0.282399
 H         3.426291         2.373721        -1.267189
 H         3.355533         0.725786        -2.089722
 H         4.212999        -1.639707         0.392827
