19
Iteration:   152
 C         0.032676        -0.222119         0.036923
 C         1.511084         0.087349         0.039435
 C         2.031195         0.798765         1.236330
 C         3.418570         0.292141         1.320955
 C         4.107246         0.594152        -0.089052
 C         3.045508         1.421028        -1.076808
 O         1.611521         0.913433        -1.107666
 C         3.544534        -0.768898         0.296498
 O         2.333090        -1.068547        -0.229260
 H        -0.222056        -0.865941         0.796343
 H        -0.561012         0.677496         0.123875
 H         0.036824        -0.736401        -0.924932
 H         1.815797         2.028023         1.145542
 H         1.401768         0.683989         2.097099
 H         3.976656         0.086699         2.284035
 H         5.210865         0.647304        -0.325994
 H         3.071960         2.460397        -0.797818
 H         3.447907         1.354150        -2.161678
 H         4.221413        -1.663657         0.525913
