19
Iteration:  3769charge 0 multiplicity 1
 C         0.008377        -0.283616        -0.197149
 C         1.471088         0.127711         0.014196
 C         1.906442         0.582069         1.440946
 C         3.430360         0.380503         1.279916
 C         3.965811         0.625920        -0.098201
 C         3.147172         1.153057        -1.228822
 O         1.776104         1.260130        -0.813794
 C         3.576865        -0.781034         0.316558
 O         2.323956        -1.047161        -0.285286
 H        -0.244924        -1.226286         0.382963
 H        -0.598788         0.495935         0.290184
 H        -0.087436        -0.255406        -1.273956
 H         1.550140         1.593917         1.490234
 H         1.486948         0.153545         2.393219
 H         3.972589         0.739514         2.157118
 H         5.074120         0.941874        -0.077615
 H         3.404709         2.136235        -1.784896
 H         3.176981         0.522764        -2.142968
 H         4.399160        -1.532406         0.374842
