19
Iteration:  3204charge 0 multiplicity 1
 C        -0.033135        -0.200766        -0.133733
 C         1.483685         0.137646         0.055632
 C         1.975072         0.474560         1.439545
 C         3.477257         0.300355         1.312334
 C         3.949948         0.698887        -0.071219
 C         3.104211         1.273696        -1.196092
 O         1.780157         1.146672        -1.062078
 C         3.582946        -0.674978         0.247470
 O         2.276400        -1.077630        -0.176540
 H        -0.427248        -0.798944         0.639421
 H        -0.711616         0.625102        -0.184204
 H        -0.178440        -0.835704        -0.977970
 H         1.653789         1.487631         1.704214
 H         1.633507        -0.194090         2.231553
 H         4.196637         0.431281         2.106419
 H         5.102435         0.824803         0.108730
 H         3.220463         2.349223        -1.205574
 H         3.581631         0.928730        -2.106821
 H         4.349314        -1.404075         0.200987
