19
Iteration:  3006charge 0 multiplicity 1
 C         0.067642        -0.174621        -0.163655
 C         1.463994         0.059169         0.100402
 C         1.930756         0.592570         1.367827
 C         3.418896         0.425674         1.274676
 C         4.024328         0.626853        -0.179976
 C         3.105660         1.317646        -1.179000
 O         1.721494         1.120822        -0.863848
 C         3.615727        -0.788619         0.273688
 O         2.306706        -1.142980        -0.210274
 H        -0.461575        -0.652359         0.681053
 H        -0.447124         0.792279        -0.293467
 H        -0.169347        -0.723220        -0.999347
 H         1.540507         1.555796         1.320819
 H         1.376880        -0.000100         2.183056
 H         3.936522         0.526090         2.231070
 H         5.115838         0.882935        -0.288304
 H         3.254485         2.415412        -1.092257
 H         3.356704         1.100450        -2.242119
 H         4.330766        -1.622766         0.311416
