19
Iteration:  3172charge 0 multiplicity 1
 C        -0.008723        -0.374753        -0.125431
 C         1.451828         0.040351         0.053866
 C         1.920186         0.589764         1.434882
 C         3.390118         0.418817         1.241606
 C         4.077035         0.585209        -0.102320
 C         3.127075         1.218613        -1.217446
 O         1.785605         1.291274        -0.826632
 C         3.514712        -0.737000         0.308142
 O         2.312752        -0.996557        -0.351437
 H        -0.293488        -0.924064         0.749561
 H        -0.590947         0.562146        -0.175831
 H        -0.056363        -0.899174        -1.116667
 H         1.550838         1.673227         1.492765
 H         1.672839        -0.029732         2.328673
 H         4.121789         0.406386         2.046147
 H         5.247548         0.866849        -0.172840
 H         3.414817         2.221497        -1.331332
 H         3.294171         0.649975        -2.153066
 H         4.203098        -1.497075         0.610816
