19
Iteration:  4324charge 0 multiplicity 1
 C         0.006220        -0.325433        -0.131046
 C         1.443855         0.098402         0.027199
 C         1.949433         0.682712         1.358087
 C         3.473089         0.397793         1.280279
 C         4.034295         0.588496        -0.111786
 C         3.165765         1.324183        -1.143151
 O         1.705215         1.143141        -0.916442
 C         3.536668        -0.773055         0.318077
 O         2.302602        -1.071176        -0.271762
 H        -0.182768        -1.298850         0.257807
 H        -0.682175         0.427091         0.361302
 H        -0.188841        -0.433160        -1.239692
 H         1.750233         1.725602         1.394543
 H         1.481443         0.181299         2.261356
 H         4.107374         0.341387         2.175736
 H         5.023856         0.622470        -0.120236
 H         3.372923         2.457952        -0.977763
 H         3.394022         1.066645        -2.222547
 H         4.291803        -1.528608         0.496636
