19
Iteration:  3818
 C         0.012751        -0.186307        -0.129220
 C         1.501020         0.068775         0.024891
 C         1.923757         0.572123         1.454398
 C         3.424421         0.352135         1.304609
 C         3.945778         0.667976        -0.116573
 C         3.186745         1.409035        -1.170882
 O         1.837030         1.033533        -1.051101
 C         3.569599        -0.732754         0.233614
 O         2.216949        -1.131738        -0.171199
 H        -0.134126        -0.878788         0.694014
 H        -0.608032         0.706187         0.114576
 H        -0.297063        -0.614895        -1.145467
 H         1.515405         1.618936         1.750464
 H         1.548635        -0.099432         2.243656
 H         4.046676         0.552641         2.190205
 H         4.984575         1.004099        -0.079224
 H         3.506764         2.440771        -0.968222
 H         3.382404         1.212455        -2.221702
 H         4.229117        -1.560343         0.312188
