19
Iteration:  3369charge 0 multiplicity 1
 C         0.039862        -0.366624        -0.141438
 C         1.443798         0.167795        -0.004568
 C         1.963139         0.592989         1.481277
 C         3.401183         0.328666         1.260348
 C         4.016355         0.728155        -0.049327
 C         3.177173         1.159792        -1.243901
 O         1.738472         1.231535        -0.824004
 C         3.550145        -0.784736         0.233670
 O         2.279578        -0.963868        -0.294580
 H        -0.287865        -0.810544         0.747552
 H        -0.535812         0.536438        -0.351636
 H        -0.027635        -1.050971        -1.028120
 H         1.579290         1.649115         1.653427
 H         1.559323         0.015437         2.294562
 H         3.974408         0.280288         2.208283
 H         5.199464         0.853644        -0.173130
 H         3.388508         2.266614        -1.549063
 H         3.458205         0.467154        -2.049152
 H         4.108111        -1.761097         0.263347
