19
Iteration:   946
 C         0.019940        -0.287445        -0.065689
 C         1.482947         0.077613         0.017006
 C         1.938658         0.693783         1.364802
 C         3.455360         0.437373         1.242569
 C         3.997794         0.599109        -0.165479
 C         3.124772         1.180740        -1.224912
 O         1.758658         1.187088        -0.852907
 C         3.546905        -0.751725         0.310219
 O         2.297394        -1.074409        -0.209657
 H        -0.173941        -1.155335         0.670464
 H        -0.543605         0.624383         0.159072
 H        -0.287997        -0.721226        -1.078198
 H         1.649073         1.737893         1.301393
 H         1.527777         0.180035         2.271793
 H         4.088549         0.761568         2.062783
 H         5.038043         0.837573        -0.515101
 H         3.545671         2.161765        -1.386140
 H         3.093073         0.623390        -2.245630
 H         4.177362        -1.614351         0.572105
