19
Iteration:  3213
 C        -0.057227        -0.197895        -0.133187
 C         1.432462         0.036565         0.018320
 C         2.016646         0.544071         1.476304
 C         3.481992         0.332180         1.315185
 C         3.956556         0.715834        -0.072499
 C         3.183031         1.389024        -1.145070
 O         1.721207         1.069940        -1.078741
 C         3.623085        -0.709244         0.253269
 O         2.275555        -1.102684        -0.189200
 H        -0.507644        -0.782082         0.683324
 H        -0.450029         0.786724        -0.207150
 H        -0.310101        -0.618324        -1.043954
 H         1.785819         1.506182         1.731873
 H         1.479943        -0.130664         2.144190
 H         4.124671         0.289047         2.232421
 H         5.074090         0.900562        -0.266867
 H         3.378362         2.527050        -1.179698
 H         3.465377         0.992243        -2.135900
 H         4.178502        -1.646235         0.328261
