19
Iteration:  4558charge 0 multiplicity 1
 C        -0.014445        -0.383482        -0.151666
 C         1.464524         0.067787         0.004000
 C         1.899428         0.617239         1.452872
 C         3.383111         0.467665         1.212104
 C         3.990759         0.570676        -0.192396
 C         3.147145         1.210640        -1.171354
 O         1.831194         1.270542        -0.754504
 C         3.585679        -0.792961         0.311302
 O         2.285092        -0.998174        -0.322726
 H        -0.280865        -1.015086         0.678524
 H        -0.566857         0.556883        -0.018752
 H        -0.134185        -0.935858        -1.075041
 H         1.674211         1.728245         1.463214
 H         1.552914         0.055674         2.263953
 H         4.071162         0.399205         2.006871
 H         5.083617         1.098084        -0.155135
 H         3.455699         2.274771        -1.152253
 H         3.338385         0.677197        -2.137686
 H         4.276654        -1.651680         0.334345
