19
Iteration:  4906
 C         0.011924        -0.263937        -0.136299
 C         1.498627         0.139133         0.052024
 C         1.998002         0.703067         1.439308
 C         3.511267         0.239915         1.295762
 C         3.989876         0.628792        -0.120060
 C         3.094927         1.512192        -1.016613
 O         1.782789         0.983271        -1.071947
 C         3.530151        -0.722766         0.144781
 O         2.175069        -1.137641        -0.158376
 H        -0.056832        -1.032122         0.554629
 H        -0.561870         0.620414         0.172449
 H        -0.141127        -0.809882        -1.184760
 H         1.900808         1.865332         1.439183
 H         1.538049         0.163632         2.208186
 H         4.252189         0.141763         2.100046
 H         5.010501         0.748061        -0.222292
 H         3.157008         2.653573        -0.710630
 H         3.509104         1.476388        -2.071555
 H         4.249774        -1.571793         0.040661
