19
Iteration:  2928
 C        -0.042067        -0.293714        -0.093934
 C         1.452928         0.044074        -0.001549
 C         1.988969         0.722322         1.365634
 C         3.404067         0.373087         1.251777
 C         4.031742         0.593380        -0.147334
 C         3.180686         1.311133        -1.153625
 O         1.709600         1.228731        -0.871247
 C         3.589918        -0.790364         0.356980
 O         2.319758        -1.137334        -0.271755
 H        -0.130753        -1.269134         0.293565
 H        -0.768997         0.454499         0.356746
 H        -0.080488        -0.384621        -1.216702
 H         1.616798         1.791007         1.410460
 H         1.355111         0.228558         2.186579
 H         4.039326         0.615645         2.114561
 H         5.101283         0.566419        -0.148181
 H         3.230945         2.441660        -1.260995
 H         3.385528         0.844303        -2.151517
 H         4.313888        -1.639568         0.319973
