19
Iteration:     5
 C         0.020731        -0.277759        -0.062300
 C         1.494794         0.094186         0.013090
 C         1.977103         0.674342         1.370164
 C         3.466318         0.428606         1.253255
 C         4.025063         0.624081        -0.178741
 C         3.127383         1.346569        -1.185562
 O         1.767438         1.006051        -1.059787
 C         3.531567        -0.740230         0.326332
 O         2.231572        -1.059730        -0.120459
 H        -0.315906        -1.009314         0.804701
 H        -0.555625         0.674913         0.131877
 H        -0.323746        -0.732568        -1.043379
 H         1.736008         1.707022         1.527758
 H         1.546743         0.196172         2.287008
 H         4.042628         0.355580         2.222332
 H         5.145962         0.688218        -0.168691
 H         3.264565         2.474702        -1.093368
 H         3.501054         1.044240        -2.162962
 H         4.065191        -1.709964         0.487447
