19
Iteration:   370charge 0 multiplicity 1
 C         0.058315        -0.316905         0.089531
 C         1.462951         0.111585        -0.041007
 C         1.908310         0.727421         1.306194
 C         3.417515         0.455813         1.223765
 C         4.013885         0.479062        -0.157512
 C         3.177191         1.389969        -1.041859
 O         1.805547         0.999698        -1.163497
 C         3.528764        -0.746795         0.284268
 O         2.245257        -1.062226        -0.145891
 H         0.040568        -1.142719         0.868571
 H        -0.616228         0.583306         0.378924
 H        -0.396810        -0.577584        -0.913016
 H         1.519763         1.824401         1.387924
 H         1.486564         0.147316         2.086923
 H         4.105244         0.609421         2.039066
 H         5.089336         0.720960        -0.211077
 H         3.254555         2.420948        -0.547069
 H         3.478704         1.397913        -2.033196
 H         4.228949        -1.562925         0.470560
