19
Iteration:   516charge 0 multiplicity 1
 C        -0.033801        -0.349862         0.057345
 C         1.453482         0.183745         0.030146
 C         1.899374         0.699076         1.340613
 C         3.405257         0.334214         1.348383
 C         4.124447         0.641086        -0.138638
 C         3.157977         1.166001        -1.280707
 O         1.718282         1.136772        -1.015434
 C         3.612472        -0.705729         0.324459
 O         2.285705        -1.030473        -0.255868
 H        -0.017341        -0.997374         0.966444
 H        -0.711596         0.500741         0.236675
 H        -0.292664        -0.767374        -0.961353
 H         1.684033         1.745643         1.524449
 H         1.483504         0.076887         2.099738
 H         3.980326         0.553652         2.262404
 H         5.231267         0.864379        -0.197649
 H         3.376790         2.242968        -1.419375
 H         3.394032         0.676879        -2.163064
 H         4.182537        -1.586824         0.357663
