19
Iteration:  4872
 C        -0.026458        -0.120562        -0.093267
 C         1.479046         0.061389         0.015946
 C         1.972547         0.636339         1.320979
 C         3.485289         0.417584         1.241135
 C         4.043942         0.590401        -0.215238
 C         3.048636         1.544010        -0.864609
 O         1.819901         0.918893        -1.108556
 C         3.606361        -0.802715         0.212112
 O         2.250691        -1.227442        -0.179297
 H        -0.297481        -0.884680         0.603648
 H        -0.537624         0.750993         0.405575
 H        -0.704133        -0.185066        -1.022726
 H         1.637052         1.725937         1.571777
 H         1.368383         0.127410         2.044211
 H         4.218920         0.560762         2.061619
 H         5.111536         0.796702        -0.258062
 H         2.986106         2.443842        -0.126291
 H         3.284571         1.892134        -1.920810
 H         4.303604        -1.598375         0.378805
