19
Iteration:   607
 C         0.072745        -0.289020         0.047676
 C         1.478184         0.113882         0.037186
 C         2.012266         0.778505         1.235238
 C         3.466144         0.381339         1.236807
 C         4.004998         0.612828        -0.210030
 C         3.138651         1.495964        -1.036827
 O         1.837550         0.873599        -1.109174
 C         3.451146        -0.775029         0.269251
 O         2.191268        -1.111429        -0.115764
 H        -0.091507        -0.923477         0.921675
 H        -0.669046         0.558518         0.220641
 H        -0.319099        -0.727607        -0.864033
 H         1.741391         1.808647         1.188454
 H         1.459234         0.224413         2.108691
 H         4.010675         0.369381         2.179546
 H         5.064471         0.749774        -0.319825
 H         3.034274         2.564383        -0.747174
 H         3.424471         1.533811        -2.075681
 H         4.203170        -1.555665         0.576709
