19
Iteration:   207charge 0 multiplicity 1
 C        -0.081792        -0.236430        -0.134027
 C         1.508194         0.110284         0.036705
 C         1.950054         0.671077         1.458887
 C         3.457325         0.402466         1.246356
 C         4.078146         0.651424        -0.319944
 C         3.127095         1.476473        -1.201905
 O         1.804060         0.949962        -1.016808
 C         3.492872        -0.717610         0.351309
 O         2.247803        -1.213702        -0.061736
 H        -0.182193        -1.081856         0.468266
 H        -0.572944         0.654687         0.184585
 H        -0.252214        -0.376686        -1.180668
 H         1.621419         1.774283         1.685801
 H         1.724844         0.045852         2.253471
 H         4.136447         0.471460         2.138565
 H         5.197708         0.745428        -0.397972
 H         3.296073         2.480140        -0.840253
 H         3.396098         1.350925        -2.305485
 H         4.226125        -1.518068         0.550047
