19
Iteration:  1008charge 0 multiplicity 1
 C         0.067641        -0.162125        -0.069718
 C         1.496665         0.026148         0.036395
 C         1.988983         0.766085         1.413105
 C         3.456038         0.302729         1.286011
 C         4.053294         0.702218        -0.156269
 C         3.108350         1.377658        -1.202614
 O         1.626376         0.958039        -1.012746
 C         3.557412        -0.772816         0.251778
 O         2.290421        -1.159160        -0.152726
 H        -0.478273        -0.628863         0.784160
 H        -0.308513         0.805304        -0.115084
 H        -0.123648        -0.616347        -1.004039
 H         1.856687         1.981216         1.393329
 H         1.496677         0.380307         2.330996
 H         3.967065         0.413965         2.241552
 H         5.173469         0.772372        -0.161751
 H         3.132490         2.558579        -1.114597
 H         3.432033         0.980569        -2.167937
 H         4.245976        -1.691361         0.304071
