19
Iteration:  1890charge 0 multiplicity 1
 C         0.036095        -0.237102         0.134799
 C         1.518198         0.058084        -0.016511
 C         1.974714         0.773085         1.201038
 C         3.430263         0.391214         1.236182
 C         4.056778         0.520312        -0.218349
 C         3.090862         1.479378        -1.007638
 O         1.832474         0.925111        -1.103700
 C         3.499856        -0.780538         0.245196
 O         2.189104        -1.148802        -0.163773
 H         0.010905        -1.095114         0.946644
 H        -0.503217         0.609073         0.564874
 H        -0.469380        -0.502563        -0.838995
 H         1.835646         1.881428         1.220429
 H         1.369488         0.448134         2.093798
 H         3.985784         0.764016         2.086752
 H         5.034172         1.000527        -0.194202
 H         3.146943         2.483814        -0.447018
 H         3.540146         1.764442        -1.915371
 H         4.229422        -1.617161         0.401886
