19
Iteration:  1000charge 0 multiplicity 1
 C         0.035281        -0.198396        -0.052497
 C         1.485883         0.086640         0.081589
 C         2.031692         0.671827         1.349406
 C         3.483074         0.336274         1.322008
 C         4.049825         0.679833        -0.082934
 C         3.079080         1.341568        -1.231874
 O         1.675720         1.014727        -1.064390
 C         3.554277        -0.764393         0.244866
 O         2.258051        -1.113398        -0.111018
 H        -0.473769        -0.738519         0.775989
 H        -0.423510         0.762066        -0.180558
 H        -0.174868        -0.693191        -1.036017
 H         1.758332         1.757670         1.392274
 H         1.551806         0.174239         2.273845
 H         3.966987         0.305529         2.295341
 H         5.121106         0.999706        -0.166103
 H         3.334307         2.365608        -1.378233
 H         3.262321         0.880488        -2.166186
 H         4.312268        -1.452814        -0.018437
