19
Iteration:  1155
 C        -0.042880        -0.311827        -0.094759
 C         1.410899         0.173116         0.055643
 C         1.979914         0.644536         1.407916
 C         3.488887         0.356126         1.292593
 C         4.084087         0.676896        -0.124150
 C         3.160553         1.212546        -1.278281
 O         1.730412         1.102896        -0.931073
 C         3.513747        -0.717001         0.278308
 O         2.277604        -1.040373        -0.193162
 H        -0.304451        -0.918999         0.760043
 H        -0.752748         0.582942        -0.147471
 H        -0.021752        -0.968447        -0.933099
 H         1.817318         1.709690         1.541086
 H         1.475874        -0.002597         2.270803
 H         4.290976         0.473849         2.015659
 H         5.132382         0.867351        -0.245551
 H         3.218943         2.343681        -1.383735
 H         3.466258         0.729413        -2.172431
 H         4.210125        -1.597255         0.386066
