19
Iteration:  2549
 C        -0.024518        -0.335640        -0.129332
 C         1.468592         0.165877         0.066522
 C         1.940760         0.539537         1.416792
 C         3.456985         0.453489         1.302737
 C         4.031236         0.603368        -0.207085
 C         3.151268         1.218214        -1.224163
 O         1.791941         1.289808        -0.938829
 C         3.504364        -0.744390         0.332843
 O         2.277003        -1.075103        -0.187075
 H        -0.049470        -1.425752         0.085984
 H        -0.693960         0.235438         0.529045
 H        -0.458854        -0.157679        -1.172513
 H         1.595385         1.523504         1.731517
 H         1.665047        -0.238215         2.166742
 H         4.117157         0.544707         2.139881
 H         5.119825         0.781300        -0.357101
 H         3.522529         2.230750        -1.678337
 H         3.365990         0.492076        -2.077463
 H         4.174805        -1.586124         0.499312
