19
Iteration:  2360charge 0 multiplicity 1
 C         0.008054        -0.240492        -0.067135
 C         1.433388         0.096194         0.026906
 C         1.972511         0.650274         1.387514
 C         3.429792         0.355434         1.330587
 C         4.042014         0.649098        -0.114656
 C         3.029754         1.102179        -1.267593
 O         1.703848         1.204624        -0.870576
 C         3.582025        -0.748825         0.297112
 O         2.376189        -1.009632        -0.264398
 H        -0.369477        -0.857588         0.806822
 H        -0.439556         0.751833        -0.403819
 H        -0.038131        -0.952701        -0.989884
 H         1.801844         1.756953         1.410315
 H         1.593368         0.188108         2.343629
 H         4.133100         0.323784         2.205309
 H         5.081645         1.026330        -0.263691
 H         3.357563         2.052187        -1.740062
 H         3.176635         0.442516        -2.083490
 H         4.256557        -1.582447         0.315754
