19
Iteration:  2201
 C        -0.076001        -0.361211        -0.159280
 C         1.403884         0.138236         0.046902
 C         2.061116         0.732950         1.505953
 C         3.546355         0.428985         1.299350
 C         4.030624         0.563954        -0.133942
 C         3.115678         1.229038        -1.251980
 O         1.688746         1.191604        -0.906427
 C         3.570481        -0.794955         0.294311
 O         2.284817        -1.063742        -0.238299
 H        -0.599915        -0.800660         0.724935
 H        -0.602487         0.533453        -0.485164
 H         0.013490        -1.066796        -0.913276
 H         1.966791         1.774808         1.532945
 H         1.520705         0.290844         2.312753
 H         4.421602         0.503610         2.041785
 H         5.102168         0.787074        -0.302506
 H         3.372629         2.305138        -1.435623
 H         3.030419         0.688155        -2.156779
 H         4.176028        -1.672570         0.334369
