19
Iteration:  2850charge 0 multiplicity 1
 C        -0.065340        -0.129245        -0.021517
 C         1.399818         0.018717         0.024331
 C         1.978580         0.718186         1.297595
 C         3.464759         0.371218         1.242725
 C         4.070155         0.630405        -0.144992
 C         3.097884         1.520072        -0.907840
 O         1.800801         0.856419        -1.095731
 C         3.580150        -0.768643         0.205977
 O         2.295252        -1.199346        -0.224375
 H        -0.474771        -0.384915         0.977530
 H        -0.211851         0.934907        -0.295776
 H        -0.346178        -0.746404        -0.943267
 H         1.797654         1.877843         1.122091
 H         1.522234         0.267105         2.272238
 H         3.972901         0.372600         2.201479
 H         5.157806         0.810701        -0.217392
 H         2.788891         2.370265        -0.318283
 H         3.480990         1.812543        -1.927353
 H         4.272401        -1.547568         0.434432
