19
Iteration:  3286
 C         0.018452        -0.318223        -0.088768
 C         1.480324         0.162285         0.017558
 C         2.049205         0.729235         1.349415
 C         3.491821         0.271771         1.260262
 C         3.980238         0.616020        -0.135754
 C         3.142270         1.519640        -0.946779
 O         1.809292         0.923652        -1.130622
 C         3.523983        -0.743274         0.218833
 O         2.173527        -1.071815        -0.141487
 H        -0.125607        -1.365995         0.427874
 H        -0.776235         0.413879         0.224642
 H        -0.265558        -0.351733        -1.164842
 H         1.752183         1.856118         1.374656
 H         1.577137         0.207062         2.237338
 H         4.073454         0.264702         2.230342
 H         4.973977         0.839064        -0.219367
 H         2.891826         2.455673        -0.661635
 H         3.617958         1.496972        -1.937004
 H         4.128348        -1.671501         0.288144
