19
Iteration:  1838charge 0 multiplicity 1
 C         0.031598        -0.184584        -0.120072
 C         1.513585         0.083746         0.126283
 C         1.976914         0.662713         1.420704
 C         3.520577         0.373867         1.133162
 C         3.952811         0.613733        -0.168208
 C         3.072141         1.409663        -1.159652
 O         1.731806         0.981628        -0.989085
 C         3.525942        -0.767977         0.221514
 O         2.256195        -1.133404        -0.029348
 H        -0.468936        -0.689550         0.722271
 H        -0.363080         0.724048        -0.474956
 H         0.018004        -0.827988        -1.058847
 H         1.800598         1.767243         1.347157
 H         1.609987         0.266189         2.312908
 H         4.298139         0.531162         1.907951
 H         5.002566         0.827547        -0.307631
 H         3.173264         2.492174        -1.007678
 H         3.444873         1.152549        -2.175223
 H         4.354753        -1.490164         0.141434
