19
Iteration:  3535
 C         0.010286        -0.239061        -0.233357
 C         1.480276         0.051793         0.075811
 C         1.952349         0.606110         1.449446
 C         3.431578         0.427850         1.284129
 C         4.000596         0.613704        -0.102305
 C         3.129943         1.274679        -1.196491
 O         1.778467         1.154635        -0.884640
 C         3.551596        -0.755772         0.330075
 O         2.283143        -1.060126        -0.269222
 H        -0.401065        -0.785012         0.654076
 H        -0.598094         0.637749        -0.399444
 H         0.016758        -0.843748        -1.091017
 H         1.480596         1.608850         1.612062
 H         1.544105         0.015614         2.253247
 H         4.266599         0.424462         1.985632
 H         4.979920         0.701932        -0.335870
 H         3.145240         2.423651        -1.348147
 H         3.420713         0.797369        -2.120666
 H         4.287197        -1.612514         0.517178
