19
Iteration:  4592charge 0 multiplicity 1
 C         0.008120        -0.344255        -0.085218
 C         1.469998         0.172675        -0.012254
 C         2.011497         0.556703         1.393173
 C         3.516155         0.310549         1.337771
 C         3.986584         0.650273        -0.033635
 C         3.110954         1.240880        -1.138101
 O         1.714166         1.217069        -0.995553
 C         3.573824        -0.750904         0.283926
 O         2.236195        -0.970291        -0.274848
 H        -0.210504        -0.896270         0.749242
 H        -0.738388         0.438119        -0.298071
 H        -0.133072        -0.945647        -1.038049
 H         1.799495         1.593915         1.628557
 H         1.456780         0.018620         2.140845
 H         4.067105        -0.005463         2.247218
 H         5.035623         1.081900        -0.195431
 H         3.407663         2.249523        -1.437100
 H         3.487848         0.688119        -2.029728
 H         4.299305        -1.562908         0.160786
