19
Iteration:  2910charge 0 multiplicity 1
 C         0.015397        -0.263549        -0.153495
 C         1.438268         0.075870         0.017782
 C         1.964122         0.659960         1.347750
 C         3.504274         0.415283         1.258317
 C         4.047404         0.589724        -0.111002
 C         3.130947         1.379776        -1.064838
 O         1.756901         1.015162        -0.965701
 C         3.556164        -0.759254         0.217676
 O         2.216620        -1.073562        -0.165583
 H        -0.315194        -1.191564         0.363880
 H        -0.535873         0.556230         0.259224
 H        -0.317498        -0.338291        -1.140739
 H         1.753575         1.668992         1.400613
 H         1.621267         0.284817         2.294764
 H         4.138266         0.284593         2.127826
 H         5.069106         0.924728        -0.310094
 H         3.274407         2.427407        -0.886523
 H         3.422235         1.322818        -2.090775
 H         4.238895        -1.556329         0.483905
