19
Iteration:  1464charge 0 multiplicity 1
 C        -0.131335        -0.223722         0.025660
 C         1.495750         0.123374        -0.029322
 C         2.004120         0.621465         1.333865
 C         3.548911         0.392775         1.222905
 C         4.057051         0.738023        -0.138131
 C         3.136842         1.574254        -1.082628
 O         1.799762         0.833318        -1.223390
 C         3.537320        -0.812039         0.252963
 O         2.207766        -1.121674         0.006234
 H        -0.179937        -0.858913         0.855656
 H        -0.722933         0.671715         0.082259
 H        -0.244894        -0.744568        -0.936798
 H         1.666887         1.677140         1.499414
 H         1.680683        -0.144155         2.110523
 H         4.109063         0.547264         2.107489
 H         5.090463         0.539825        -0.308255
 H         3.077715         2.508052        -0.521865
 H         3.317430         1.823761        -2.157820
 H         4.109251        -1.755845         0.263234
