19
Iteration:   447charge 0 multiplicity 1
 C        -0.035828        -0.249077        -0.133438
 C         1.435132        -0.034850         0.061830
 C         2.016131         0.590672         1.452810
 C         3.496547         0.592807         1.160395
 C         3.961967         0.566664        -0.234399
 C         3.199088         1.438871        -1.187986
 O         1.812089         1.055363        -1.042166
 C         3.506450        -0.732457         0.359637
 O         2.198364        -1.174917        -0.055093
 H        -0.403908        -0.855516         0.748599
 H        -0.457538         0.779217        -0.207253
 H        -0.143255        -0.736893        -1.116204
 H         1.591877         1.544259         1.856900
 H         1.810902        -0.161445         2.089988
 H         4.085263         0.896549         2.034027
 H         4.979466         0.755247        -0.502681
 H         3.440622         2.438101        -0.858310
 H         3.541510         1.393513        -2.155821
 H         4.236631        -1.590478         0.470040
