19
Iteration:   349
 C        -0.062633        -0.293875        -0.115953
 C         1.405668         0.101078         0.041734
 C         2.042269         0.681491         1.418736
 C         3.498270         0.468188         1.235972
 C         4.032644         0.624100        -0.148995
 C         3.183541         1.447784        -1.193854
 O         1.782306         0.990256        -1.070077
 C         3.548741        -0.799861         0.323573
 O         2.191539        -1.154067        -0.070380
 H        -0.264972        -1.126832         0.611698
 H        -0.646410         0.637350         0.032978
 H        -0.202979        -0.540274        -1.178705
 H         1.645173         1.747302         1.483290
 H         1.619921         0.116407         2.163643
 H         4.105025         0.657613         2.115657
 H         5.098228         0.718201        -0.393155
 H         3.269463         2.549808        -0.945795
 H         3.509651         1.313791        -2.189037
 H         4.307184        -1.578878         0.362953
