19
Iteration:  4662
 C        -0.062717        -0.204668        -0.119442
 C         1.424242         0.139799         0.028534
 C         2.075421         0.708839         1.296150
 C         3.538391         0.232824         1.301893
 C         3.968829         0.605733        -0.133157
 C         3.026118         1.540227        -0.941436
 O         1.790275         0.949438        -1.183684
 C         3.598196        -0.754091         0.250536
 O         2.242171        -1.159324        -0.089485
 H        -0.076389        -1.248690         0.463108
 H        -0.796615         0.571931         0.159937
 H        -0.211465        -0.298727        -1.166597
 H         1.849788         1.758813         1.498717
 H         1.474921         0.225884         2.128538
 H         4.305215         0.227008         2.074993
 H         5.029656         0.825537        -0.361956
 H         3.045927         2.478633        -0.365552
 H         3.532135         1.800528        -1.915109
 H         4.310428        -1.588812         0.201890
