19
Iteration:  4852charge 0 multiplicity 1
 C         0.026731        -0.113535        -0.012100
 C         1.530171         0.015117         0.028881
 C         1.996293         0.633307         1.336671
 C         3.438578         0.289668         1.273975
 C         3.966543         0.669169        -0.124860
 C         3.102818         1.533820        -0.978923
 O         1.754720         0.927130        -1.128359
 C         3.523630        -0.755806         0.260293
 O         2.285509        -1.157951        -0.224266
 H        -0.275587        -0.985254         0.480198
 H        -0.500645         0.804894         0.317824
 H        -0.292646        -0.208003        -1.161165
 H         1.717857         1.732928         1.403875
 H         1.628918         0.230599         2.242905
 H         4.137666         0.199005         2.122661
 H         4.957004         0.773315        -0.223281
 H         3.002369         2.467940        -0.523563
 H         3.466854         1.550958        -2.011413
 H         4.304234        -1.518621         0.129311
