19
Iteration:   802
 C        -0.009045        -0.187929        -0.078698
 C         1.429521         0.095038         0.046662
 C         1.983080         0.704823         1.308638
 C         3.511461         0.496019         1.162856
 C         4.025739         0.605784        -0.245006
 C         3.137042         1.405884        -1.055595
 O         1.758769         0.980213        -1.011063
 C         3.565034        -0.767193         0.286417
 O         2.229866        -1.216095        -0.019556
 H        -0.491095        -0.852960         0.710751
 H        -0.609096         0.766061        -0.126543
 H        -0.228201        -0.799992        -0.942605
 H         1.666618         1.697296         1.265834
 H         1.577080         0.115818         2.117623
 H         4.236393         0.574762         2.001139
 H         5.049855         0.550284        -0.505705
 H         3.236698         2.435936        -0.634196
 H         3.572265         1.248420        -2.113989
 H         4.262550        -1.569016         0.167601
