19
Iteration:  2830charge 0 multiplicity 1
 C        -0.123416        -0.227506        -0.080289
 C         1.458427         0.053582         0.002151
 C         2.021470         0.693462         1.333868
 C         3.501043         0.318504         1.314419
 C         4.017345         0.612162        -0.133367
 C         3.140777         1.438038        -1.037503
 O         1.783544         1.026550        -1.058634
 C         3.525526        -0.806776         0.295952
 O         2.291013        -1.088023        -0.224194
 H        -0.309586        -0.634835         0.867021
 H        -0.760830         0.656918        -0.276939
 H        -0.237945        -1.082519        -0.823268
 H         1.809016         1.787979         1.374153
 H         1.512088         0.180755         2.242043
 H         4.176205         0.544166         2.157876
 H         5.043583         0.963123        -0.281767
 H         3.192901         2.461043        -0.704044
 H         3.395086         1.296223        -2.080659
 H         4.300042        -1.545918         0.252060
