19
Iteration:  2762
 C        -0.001284        -0.176533        -0.187892
 C         1.421563         0.071013         0.096030
 C         1.883283         0.559376         1.324671
 C         3.443867         0.462678         1.261749
 C         4.077297         0.657942        -0.153621
 C         3.070290         1.115427        -1.208695
 O         1.744515         1.213637        -0.805274
 C         3.608603        -0.709242         0.348249
 O         2.391475        -1.095263        -0.288261
 H        -0.579859        -1.160173         0.069323
 H        -0.583131         0.533842         0.401492
 H        -0.148999        -0.124927        -1.274462
 H         1.376262         1.648424         1.691199
 H         1.714332         0.027355         2.371239
 H         4.076162         0.424576         2.112835
 H         5.133229         0.966601        -0.244679
 H         3.273853         2.079413        -1.499021
 H         3.149930         0.206196        -1.867209
 H         4.181150        -1.627935         0.519903
