19
Iteration:  3248charge 0 multiplicity 1
 C        -0.037071        -0.247776        -0.051905
 C         1.486490         0.048430        -0.006286
 C         1.975769         0.693494         1.277801
 C         3.423847         0.373569         1.269157
 C         3.964936         0.574996        -0.181927
 C         3.140649         1.530952        -0.909620
 O         1.818708         0.959858        -1.087395
 C         3.558812        -0.790887         0.218197
 O         2.241899        -1.136575        -0.165941
 H        -0.351285        -1.006931         0.565922
 H        -0.529660         0.644060         0.292312
 H        -0.179161        -0.529542        -1.084469
 H         1.916507         1.788479         1.312693
 H         1.520070         0.280510         2.176661
 H         4.055827         0.437946         2.101835
 H         5.061911         0.897918        -0.483958
 H         3.306474         2.505076        -0.285635
 H         3.597383         1.739050        -1.888884
 H         4.274485        -1.507532         0.502939
