19
Iteration:  4651charge 0 multiplicity 1
 C        -0.055431        -0.147598        -0.128616
 C         1.454038         0.123347        -0.015865
 C         2.011558         0.627517         1.339518
 C         3.548121         0.399872         1.257381
 C         4.022773         0.627781        -0.141674
 C         3.098315         1.552066        -0.928306
 O         1.737083         0.932403        -1.126326
 C         3.582694        -0.838093         0.229690
 O         2.263009        -1.212117        -0.098856
 H        -0.507677        -1.077716         0.437989
 H        -0.595065         0.718448         0.286790
 H        -0.247833        -0.327769        -1.174829
 H         1.822528         1.703522         1.333982
 H         1.559862         0.093608         2.222697
 H         4.081914         0.416625         2.219781
 H         5.093676         0.747880        -0.219487
 H         2.919713         2.513412        -0.402940
 H         3.380624         1.762720        -1.982134
 H         4.354253        -1.598587         0.079853
