19
Iteration:   266
 C        -0.011744        -0.371388         0.058683
 C         1.482190         0.117790         0.035531
 C         1.949864         0.675755         1.418930
 C         3.400813         0.418499         1.269802
 C         3.942702         0.640563        -0.087567
 C         3.288481         1.235789        -1.258163
 O         1.802095         1.152616        -1.038932
 C         3.521429        -0.753220         0.290450
 O         2.272110        -1.046732        -0.273940
 H        -0.340472        -0.958901         0.923368
 H        -0.783433         0.376173         0.094730
 H        -0.328665        -0.996465        -0.760625
 H         1.695715         1.703868         1.483313
 H         1.526029         0.129597         2.384076
 H         3.993680         0.775479         2.087699
 H         4.969592         0.930093        -0.058725
 H         3.441266         2.291008        -1.343989
 H         3.432965         0.801318        -2.262956
 H         4.131454        -1.679486         0.270001
