19
Iteration:  2864charge 0 multiplicity 1
 C         0.008079        -0.066461        -0.051994
 C         1.568613         0.000116        -0.034800
 C         1.994418         0.653175         1.277590
 C         3.462641         0.314122         1.228931
 C         4.036151         0.705190        -0.134901
 C         3.033631         1.532291        -0.882524
 O         1.832434         0.847156        -1.186143
 C         3.538119        -0.728662         0.234976
 O         2.195712        -1.206862        -0.083082
 H        -0.322610        -0.534879         0.813563
 H        -0.572070         0.877453        -0.084805
 H        -0.508095        -0.717817        -0.789353
 H         1.694493         1.697531         1.405040
 H         1.517009         0.136863         2.174984
 H         4.156257         0.338643         2.096618
 H         5.082332         0.956758        -0.292050
 H         3.021484         2.442526        -0.381721
 H         3.388876         1.871627        -1.823660
 H         4.202269        -1.619912         0.082509
