19
Iteration:  4428charge 0 multiplicity 1
 C        -0.044872        -0.256109        -0.139286
 C         1.440367         0.083993         0.040711
 C         2.063303         0.654669         1.334898
 C         3.527720         0.292804         1.278595
 C         4.024464         0.682093        -0.064176
 C         3.152370         1.452790        -1.011349
 O         1.711994         0.988422        -1.047262
 C         3.544958        -0.769097         0.209706
 O         2.234858        -1.092874        -0.136974
 H        -0.521319        -0.930665         0.599725
 H        -0.666138         0.603434        -0.461212
 H        -0.049133        -0.844880        -1.063862
 H         1.846370         1.756732         1.400721
 H         1.588385         0.223552         2.213527
 H         4.033905         0.447039         2.172023
 H         5.174478         1.015629        -0.159261
 H         3.022145         2.495392        -0.891042
 H         3.522946         1.402344        -2.083018
 H         4.204444        -1.570523        -0.016377
