19
Iteration:  3886charge 0 multiplicity 1
 C         0.024813        -0.254605        -0.105009
 C         1.471382         0.129170        -0.014467
 C         2.008709         0.658346         1.307162
 C         3.464557         0.308802         1.314474
 C         4.004950         0.620254        -0.132316
 C         3.143776         1.566033        -1.015918
 O         1.803838         0.968530        -1.092346
 C         3.531835        -0.773489         0.254069
 O         2.181446        -1.152861        -0.117440
 H        -0.240070        -0.693657         0.825911
 H        -0.680379         0.602754        -0.181763
 H        -0.187378        -0.918304        -1.018791
 H         1.617496         1.731057         1.438191
 H         1.589044         0.110880         2.166522
 H         4.046031         0.498692         2.210755
 H         5.228796         0.714373        -0.301380
 H         2.993846         2.580973        -0.681392
 H         3.714126         1.597738        -2.006783
 H         4.159047        -1.709419         0.155275
