19
Iteration:  2969charge 0 multiplicity 1
 C        -0.020688        -0.283881        -0.119996
 C         1.422108         0.242238         0.090422
 C         1.878708         0.482927         1.470182
 C         3.476993         0.428776         1.285823
 C         4.051493         0.700502        -0.037337
 C         3.185451         1.113847        -1.313483
 O         1.758055         1.156853        -0.911133
 C         3.599802        -0.681831         0.282215
 O         2.252044        -1.005689        -0.322497
 H        -0.230609        -1.088133         0.592357
 H        -0.749645         0.562897         0.115180
 H         0.070890        -0.532376        -1.258432
 H         1.550483         1.526666         1.924100
 H         1.714887        -0.318633         2.212578
 H         4.074992         0.318352         2.203234
 H         5.124695         0.847452        -0.122668
 H         3.483296         2.159131        -1.571428
 H         3.119065         0.189623        -1.913691
 H         4.357764        -1.473271         0.210020
