19
Iteration:  4709charge 0 multiplicity 1
 C        -0.089465        -0.329510        -0.018412
 C         1.467337         0.087496        -0.085853
 C         1.979340         0.606228         1.337694
 C         3.406385         0.354049         1.239616
 C         4.052186         0.610946        -0.165651
 C         3.178849         1.437505        -1.042883
 O         1.785397         1.107900        -0.961340
 C         3.572830        -0.770304         0.272012
 O         2.274299        -1.094985        -0.217680
 H        -0.223064        -1.112449         0.824114
 H        -0.529085         0.702006         0.196178
 H        -0.550300        -0.512352        -1.037044
 H         1.745022         1.765250         1.443968
 H         1.438056         0.194805         2.187324
 H         3.960329         0.477445         2.159958
 H         5.195609         0.780960        -0.376838
 H         3.434723         2.495329        -0.798148
 H         3.427430         1.322119        -2.149721
 H         4.144477        -1.653427         0.520069
