19
Iteration:  1591charge 0 multiplicity 1
 C        -0.014407        -0.207036        -0.139460
 C         1.493151         0.046488         0.085129
 C         1.944241         0.644925         1.399744
 C         3.528530         0.388947         1.285350
 C         4.035515         0.718732        -0.178954
 C         3.063534         1.080667        -1.258940
 O         1.658131         1.178633        -0.847920
 C         3.621938        -0.713036         0.315360
 O         2.302709        -1.052856        -0.222158
 H        -0.449870        -1.114945         0.387432
 H        -0.563942         0.674922         0.116858
 H         0.175275        -0.521161        -1.249769
 H         1.620007         1.661146         1.493728
 H         1.445106         0.082861         2.221926
 H         4.119255         0.603097         2.119221
 H         5.097948         0.907481        -0.215407
 H         3.355001         2.053966        -1.746717
 H         3.275192         0.326486        -1.958118
 H         4.286733        -1.568095         0.408598
