19
Iteration:  2796charge 0 multiplicity 1
 C         0.075443        -0.332667        -0.136659
 C         1.404922         0.189156         0.070344
 C         1.932533         0.623158         1.464047
 C         3.443761         0.352226         1.293472
 C         3.964505         0.612240        -0.173938
 C         3.179003         1.253294        -1.243530
 O         1.819904         1.189000        -0.906646
 C         3.525332        -0.729672         0.274796
 O         2.245802        -1.044234        -0.203696
 H        -0.002175        -1.094324         0.645333
 H        -0.751540         0.383162        -0.152088
 H         0.087423        -0.823650        -1.170083
 H         1.479426         1.672090         1.664422
 H         1.555886        -0.162592         2.239544
 H         4.069996         0.485303         2.154224
 H         5.023846         0.885737        -0.166021
 H         3.430399         2.249511        -1.514514
 H         3.492203         0.762308        -2.204561
 H         4.062373        -1.649069         0.240362
