19
Iteration:  1720
 C        -0.011486        -0.245731        -0.037184
 C         1.490220         0.042199         0.072942
 C         2.025152         0.617662         1.346645
 C         3.451579         0.482270         1.191461
 C         3.972584         0.575592        -0.297488
 C         3.126397         1.487573        -1.140286
 O         1.825868         0.945068        -1.056342
 C         3.520355        -0.719882         0.347103
 O         2.212932        -1.143653        -0.069339
 H        -0.384142        -1.053816         0.569149
 H        -0.412002         0.692244         0.214553
 H        -0.348044        -0.155693        -1.114225
 H         1.689863         1.705817         1.552091
 H         1.629551        -0.009962         2.206893
 H         4.121333         0.713985         1.992987
 H         5.023426         0.463600        -0.298266
 H         3.094681         2.469788        -0.665658
 H         3.538647         1.560612        -2.175237
 H         4.334114        -1.468531         0.476425
