19
Iteration:  1176charge 0 multiplicity 1
 C        -0.003721        -0.295721        -0.082875
 C         1.422923         0.035928         0.064358
 C         1.986338         0.784135         1.317524
 C         3.467154         0.387017         1.228420
 C         3.978397         0.514629        -0.131061
 C         3.074051         1.269369        -1.135617
 O         1.673723         1.187900        -0.938872
 C         3.693572        -0.784910         0.359882
 O         2.341642        -1.072461        -0.267098
 H        -0.482380        -0.791773         0.689853
 H        -0.493569         0.724182        -0.014106
 H        -0.273172        -0.793804        -0.969464
 H         1.691320         1.837331         1.324997
 H         1.608107         0.241835         2.296342
 H         4.065527         0.493251         2.134483
 H         5.030268         0.695485        -0.224782
 H         3.266761         2.407782        -1.230821
 H         3.368586         0.755021        -2.035698
 H         4.354696        -1.712691         0.424613
