19
Iteration:  1895charge 0 multiplicity 1
 C         0.061303        -0.214605         0.155666
 C         1.524729         0.091134        -0.053020
 C         1.937750         0.769448         1.199240
 C         3.380592         0.365293         1.264655
 C         4.068173         0.566433        -0.243800
 C         3.119652         1.465538        -1.028386
 O         1.798722         0.956435        -1.080596
 C         3.502440        -0.779529         0.254048
 O         2.230847        -1.208413        -0.149192
 H        -0.161762        -0.993370         0.801357
 H        -0.471070         0.605233         0.668004
 H        -0.461430        -0.464560        -0.796982
 H         1.803035         1.859487         1.194161
 H         1.404983         0.394049         2.049585
 H         4.137935         0.593617         2.099247
 H         5.103928         0.880895         0.046926
 H         3.189292         2.449890        -0.584246
 H         3.353386         1.623427        -2.179454
 H         4.299279        -1.469429         0.335555
