19
Iteration:  4478charge 0 multiplicity 1
 C        -0.023955        -0.254227        -0.004543
 C         1.455893         0.054488        -0.043862
 C         1.996277         0.674819         1.209203
 C         3.457038         0.344339         1.222996
 C         4.032295         0.587321        -0.078238
 C         3.142050         1.526259        -0.919841
 O         1.799636         1.040078        -1.098022
 C         3.570446        -0.775825         0.234381
 O         2.235657        -1.163743        -0.188271
 H        -0.029486        -1.161057         0.700302
 H        -0.517506         0.579287         0.442442
 H        -0.636895        -0.552220        -0.835726
 H         1.611507         1.705282         1.143515
 H         1.446767         0.269063         2.051794
 H         4.115145         0.399816         2.142327
 H         5.067092         0.784096        -0.184329
 H         2.957323         2.560704        -0.555291
 H         3.538125         1.717901        -1.906071
 H         4.132735        -1.590879         0.677821
