19
Iteration:   485
 C         0.047975        -0.295172        -0.087254
 C         1.470448         0.132775         0.112991
 C         2.046059         0.739247         1.374298
 C         3.438287         0.328438         1.302082
 C         3.989898         0.755974        -0.104463
 C         3.087048         1.190845        -1.223424
 O         1.717396         1.078419        -0.985668
 C         3.547978        -0.789475         0.363375
 O         2.274135        -1.060986        -0.290897
 H        -0.366577        -0.826305         0.756307
 H        -0.657860         0.521362        -0.281289
 H        -0.072279        -0.949243        -0.988155
 H         1.925080         1.797896         1.417560
 H         1.692016         0.334891         2.407547
 H         4.176309         0.447793         2.078958
 H         5.094736         0.925071        -0.101421
 H         3.175590         2.296896        -1.422024
 H         3.319161         0.700825        -2.213168
 H         4.121308        -1.650311         0.467816
