19
Iteration:  4834charge 0 multiplicity 1
 C        -0.083453        -0.261552        -0.058846
 C         1.431226         0.122532        -0.048562
 C         2.026838         0.613952         1.371236
 C         3.540682         0.276694         1.338344
 C         4.048956         0.706567        -0.011000
 C         3.111000         1.458845        -1.080047
 O         1.779919         1.006061        -1.061471
 C         3.615497        -0.766627         0.137359
 O         2.173442        -1.095468        -0.189892
 H        -0.253781        -1.143021         0.597019
 H        -0.552657         0.646853         0.264165
 H        -0.357692        -0.498993        -1.066204
 H         1.930695         1.660639         1.430353
 H         1.444163         0.078366         2.202768
 H         4.093709         0.411108         2.254332
 H         5.140565         1.003050        -0.169070
 H         3.056425         2.617997        -0.958850
 H         3.567951         1.203145        -2.034324
 H         4.192646        -1.730347         0.263870
