19
Iteration:  2917
 C         0.000827        -0.297430        -0.157245
 C         1.469699         0.088220         0.063368
 C         1.956684         0.681442         1.303532
 C         3.474663         0.401916         1.261498
 C         4.058377         0.595518        -0.120353
 C         3.136920         1.359441        -1.079288
 O         1.723631         1.087466        -0.914420
 C         3.528392        -0.759525         0.236776
 O         2.283130        -1.111848        -0.199904
 H        -0.309968        -1.164059         0.363529
 H        -0.561519         0.553837         0.340989
 H        -0.404682        -0.297883        -1.217000
 H         1.756085         1.798977         1.215957
 H         1.644440         0.167389         2.280879
 H         4.040877         0.497571         2.203992
 H         5.106149         0.818231        -0.306590
 H         3.471194         2.437064        -0.925539
 H         3.343436         1.054085        -2.133159
 H         4.105125        -1.685410         0.456325
