19
Iteration:  1368charge 0 multiplicity 1
 C         0.013972        -0.243661        -0.112454
 C         1.474428         0.089326         0.093247
 C         1.949720         0.616611         1.480140
 C         3.401919         0.376220         1.254516
 C         3.979692         0.686154        -0.133759
 C         3.136736         1.128032        -1.327375
 O         1.725655         1.133298        -0.921479
 C         3.595123        -0.717302         0.281064
 O         2.316165        -1.007022        -0.223488
 H        -0.116214        -1.040124         0.619298
 H        -0.650990         0.625400         0.164930
 H        -0.170852        -0.667935        -1.113643
 H         1.667467         1.712398         1.622694
 H         1.768641         0.050476         2.362393
 H         4.172659         0.399382         1.997316
 H         4.999211         1.012795        -0.106806
 H         3.251060         2.247173        -1.466985
 H         3.399038         0.634749        -2.240753
 H         4.196080        -1.586805         0.604517
