19
Iteration:  1693charge 0 multiplicity 1
 C        -0.046558        -0.193186        -0.075220
 C         1.480823         0.141722        -0.037920
 C         2.055400         0.750131         1.333848
 C         3.574467         0.287633         1.286455
 C         4.020702         0.757950        -0.137863
 C         3.007646         1.449344        -0.999680
 O         1.770285         0.773539        -1.155056
 C         3.552953        -0.746977         0.171497
 O         2.204578        -1.159555        -0.008245
 H        -0.294935        -0.771333         0.830708
 H        -0.364815         0.919369         0.064393
 H        -0.450949        -0.533753        -1.030481
 H         1.891092         1.833349         1.318804
 H         1.499619         0.315043         2.135821
 H         4.367916         0.290505         2.122714
 H         5.125626         0.880325        -0.348717
 H         2.756646         2.479553        -0.615291
 H         3.591100         1.490559        -1.931431
 H         4.339365        -1.476247         0.119097
