19
Iteration:  1973charge 0 multiplicity 1
 C         0.027544        -0.322218        -0.153543
 C         1.473437         0.049650         0.065371
 C         1.908653         0.642531         1.304854
 C         3.493420         0.484623         1.210266
 C         3.965155         0.608302        -0.238471
 C         3.193411         1.141291        -1.330656
 O         1.724815         1.367471        -0.690710
 C         3.579790        -0.818117         0.356911
 O         2.260802        -1.106810        -0.157748
 H        -0.204878        -0.877744         0.804358
 H        -0.702178         0.579858        -0.202207
 H        -0.282285        -0.952473        -0.901325
 H         1.705857         1.637659         1.495710
 H         1.735008         0.009952         2.230934
 H         4.096259         0.714786         2.033387
 H         5.068858         0.834564        -0.402700
 H         3.415917         2.165933        -1.455271
 H         3.122774         0.558153        -2.378181
 H         4.382578        -1.637044         0.332533
