19
Iteration:  2354
 C         0.077017        -0.285272        -0.102152
 C         1.494266         0.103629         0.041319
 C         2.025964         0.668922         1.453488
 C         3.404221         0.334310         1.328921
 C         4.017086         0.648203        -0.130464
 C         3.052180         1.156536        -1.288265
 O         1.671668         1.186171        -0.908165
 C         3.582599        -0.773708         0.332176
 O         2.289577        -0.984718        -0.255695
 H        -0.267569        -0.850347         0.760515
 H        -0.454570         0.633916        -0.235840
 H         0.047046        -0.779698        -1.012088
 H         1.882112         1.732176         1.376344
 H         1.474354         0.314109         2.336794
 H         4.021646         0.308925         2.231796
 H         5.068218         0.885713        -0.150257
 H         3.207794         2.120974        -1.781091
 H         3.255173         0.396152        -2.168629
 H         4.348493        -1.581557         0.197959
