19
Iteration:   212
 C        -0.042115        -0.200108        -0.157247
 C         1.511460         0.074198         0.051549
 C         1.966516         0.688102         1.465986
 C         3.480744         0.449714         1.255923
 C         4.004349         0.617918        -0.287667
 C         3.120208         1.424791        -1.173721
 O         1.801285         0.983967        -1.022587
 C         3.539480        -0.749267         0.340982
 O         2.253400        -1.194620        -0.090368
 H        -0.340047        -1.149051         0.430336
 H        -0.786786         0.588221         0.197584
 H        -0.357763        -0.484980        -1.205017
 H         1.735985         1.702278         1.564998
 H         1.654977         0.016713         2.382453
 H         4.197194         0.556095         2.035988
 H         5.053564         0.791240        -0.356304
 H         3.204534         2.541585        -0.974145
 H         3.385926         1.327585        -2.213012
 H         4.218102        -1.562575         0.543512
