19
Iteration:  2739
 C        -0.017653        -0.152687        -0.166566
 C         1.475503         0.029131         0.063135
 C         1.955110         0.545317         1.471826
 C         3.407787         0.382551         1.333816
 C         3.918953         0.670358        -0.130201
 C         3.176721         1.225451        -1.345703
 O         1.788905         1.145773        -0.936774
 C         3.616089        -0.695266         0.280641
 O         2.309170        -1.044345        -0.184856
 H        -0.235580        -1.256864         0.145206
 H        -0.620250         0.402723         0.557103
 H        -0.344591        -0.108687        -1.160634
 H         1.350346         1.504474         1.765266
 H         1.628428        -0.167678         2.333438
 H         4.125012         0.596357         2.119366
 H         4.925687         1.003514         0.085547
 H         3.406771         2.189414        -1.606165
 H         3.458602         0.451638        -2.084636
 H         4.156057        -1.660842         0.256831
