19
Iteration:  4348charge 0 multiplicity 1
 C         0.096223        -0.359460        -0.119585
 C         1.469755         0.132709         0.036985
 C         1.913078         0.700869         1.419868
 C         3.414380         0.297805         1.302234
 C         3.973447         0.699803        -0.030613
 C         3.128954         1.177748        -1.226838
 O         1.738307         1.219683        -0.880616
 C         3.617357        -0.811123         0.264816
 O         2.253293        -0.976413        -0.323095
 H        -0.123008        -1.295349         0.377611
 H        -0.633826         0.322980         0.257269
 H        -0.023230        -0.511029        -1.204679
 H         1.897490         1.805675         1.497190
 H         1.381908         0.223892         2.236299
 H         4.080803         0.395336         2.242360
 H         5.053867         0.903462        -0.067149
 H         3.324977         2.169243        -1.643339
 H         3.307191         0.366956        -2.002581
 H         4.313006        -1.694551         0.353949
