19
Iteration:  3501charge 0 multiplicity 1
 C        -0.027458        -0.342294        -0.120274
 C         1.427642         0.133922         0.039068
 C         1.929953         0.690203         1.361358
 C         3.510790         0.284815         1.224120
 C         4.010440         0.620436        -0.082556
 C         3.176957         1.481679        -1.080043
 O         1.797419         1.076580        -1.107048
 C         3.583896        -0.807413         0.245613
 O         2.193784        -1.071334        -0.108540
 H        -0.185003        -1.060680         0.732942
 H        -0.733129         0.447092        -0.038853
 H        -0.197583        -0.908160        -0.982978
 H         1.828065         1.809835         1.383787
 H         1.436511         0.142077         2.095247
 H         4.155395         0.291809         2.083474
 H         5.067533         0.679052        -0.074191
 H         3.180804         2.576788        -0.694471
 H         3.813411         1.467066        -1.931291
 H         4.231076        -1.637264         0.371795
