19
Iteration:  4213charge 0 multiplicity 1
 C         0.094439        -0.357731        -0.145335
 C         1.445510         0.125252         0.028125
 C         1.947057         0.632312         1.485862
 C         3.439982         0.353011         1.244803
 C         3.921162         0.601185        -0.136049
 C         3.239861         1.463639        -1.172917
 O         1.793769         1.139436        -1.065715
 C         3.491293        -0.790677         0.267928
 O         2.222714        -1.094011        -0.139000
 H        -0.177686        -0.908344         0.858446
 H        -0.699534         0.462454        -0.186948
 H         0.105417        -0.923362        -1.073631
 H         1.654631         1.670787         1.713099
 H         1.527520        -0.094019         2.272635
 H         4.015675         0.608980         2.121871
 H         5.047438         0.882215        -0.007799
 H         3.394521         2.471985        -1.009901
 H         3.721027         1.173779        -2.168304
 H         3.999046        -1.765251         0.430553
