19
Iteration:   356
 C        -0.046546        -0.283156        -0.058443
 C         1.439266         0.081800         0.050784
 C         1.981763         0.664513         1.380251
 C         3.495176         0.524604         1.267184
 C         4.023642         0.596626        -0.179198
 C         3.204346         1.422900        -1.148381
 O         1.770262         1.013030        -1.127850
 C         3.546926        -0.839362         0.297612
 O         2.208927        -1.112781        -0.084949
 H        -0.200770        -1.124886         0.601638
 H        -0.721875         0.577788         0.317487
 H        -0.193341        -0.760112        -1.090224
 H         1.625818         1.701456         1.414201
 H         1.506823         0.072564         2.285307
 H         4.113345         0.844286         2.113382
 H         5.128221         0.630958        -0.267664
 H         3.307629         2.476319        -0.828140
 H         3.711279         1.522495        -2.186377
 H         4.125111        -1.736595         0.273151
