19
Iteration:  2410charge 0 multiplicity 1
 C         0.060465        -0.178607        -0.094971
 C         1.512544         0.137545         0.048434
 C         1.928255         0.524727         1.505432
 C         3.419146         0.411755         1.282591
 C         3.956588         0.639083        -0.183891
 C         3.141283         1.323995        -1.274830
 O         1.747532         1.083457        -0.987323
 C         3.584390        -0.726549         0.265768
 O         2.253012        -1.103014        -0.134049
 H        -0.439210        -0.199481         0.807072
 H        -0.290667         0.613008        -0.693349
 H        -0.090287        -1.187959        -0.521342
 H         1.501780         1.508915         1.762045
 H         1.488961        -0.286423         2.108825
 H         4.176038         0.439622         1.989198
 H         5.034680         0.768003        -0.407158
 H         3.287675         2.434975        -1.354039
 H         3.501257         0.714959        -2.245653
 H         4.392370        -1.445615         0.466087
