19
Iteration:   994charge 0 multiplicity 1
 C        -0.021168        -0.218966        -0.051911
 C         1.473419         0.119379         0.069101
 C         2.032960         0.618248         1.348255
 C         3.507037         0.360236         1.311550
 C         3.987134         0.672381        -0.066875
 C         3.091434         1.285854        -1.217356
 O         1.727848         1.050216        -1.064454
 C         3.602323        -0.716813         0.254642
 O         2.227532        -1.085288        -0.110852
 H        -0.354858        -0.828167         0.770532
 H        -0.600944         0.789911        -0.131206
 H        -0.148099        -0.823464        -0.955797
 H         1.790539         1.664898         1.404740
 H         1.567861         0.085038         2.125633
 H         4.183724         0.307011         2.180092
 H         5.005582         0.924734        -0.236217
 H         3.242385         2.411137        -1.416241
 H         3.435312         0.767261        -2.219516
 H         4.318267        -1.553464         0.067599
