19
Iteration:   502
 C         0.020600        -0.317823        -0.019690
 C         1.443200         0.107401        -0.053153
 C         2.005066         0.752251         1.478468
 C         3.475324         0.407830         1.398499
 C         4.007338         0.580756        -0.065109
 C         3.141451         1.156194        -1.197168
 O         1.639377         1.084460        -1.031869
 C         3.578259        -0.723964         0.254270
 O         2.319134        -0.945989        -0.314056
 H        -0.269889        -1.006558         0.859730
 H        -0.583198         0.586846         0.022590
 H        -0.186514        -1.020337        -0.824941
 H         1.783354         1.892734         1.413863
 H         1.413761         0.401381         2.234777
 H         4.186070         0.296152         2.251772
 H         5.020520         0.843308        -0.248755
 H         3.430168         2.142584        -1.504404
 H         3.355597         0.371074        -1.960338
 H         4.262866        -1.638133         0.281561
