19
Iteration:  1226
 C        -0.110433        -0.225045         0.003560
 C         1.390250         0.190784        -0.009041
 C         2.023299         0.583375         1.394924
 C         3.537976         0.373005         1.292672
 C         4.003600         0.676810        -0.170382
 C         3.198986         1.454535        -1.125685
 O         1.787091         0.920725        -1.186641
 C         3.571191        -0.669330         0.246040
 O         2.259535        -1.144673        -0.035798
 H        -0.525764        -1.180618         0.547128
 H        -0.828804         0.517671         0.307691
 H        -0.330100        -0.529496        -1.116570
 H         1.676082         1.665874         1.668406
 H         1.567441        -0.136786         2.026641
 H         4.119896         0.428944         2.241160
 H         5.153140         0.717581        -0.280602
 H         3.112363         2.453659        -0.886878
 H         3.630053         1.278202        -2.176088
 H         4.111450        -1.615666         0.189428
