19
Iteration:  3128
 C         0.070630        -0.242764        -0.171837
 C         1.522908         0.118269         0.085317
 C         1.941487         0.527968         1.477123
 C         3.467223         0.374004         1.311269
 C         3.944482         0.719790        -0.151671
 C         3.186941         1.308634        -1.241234
 O         1.710750         1.131569        -0.968309
 C         3.548437        -0.732198         0.279130
 O         2.238073        -1.062603        -0.195082
 H        -0.200095        -1.165908         0.364189
 H        -0.723635         0.453439         0.084192
 H         0.000838        -0.480411        -1.265137
 H         1.668536         1.595752         1.645117
 H         1.635415        -0.130243         2.347764
 H         4.001256         0.096723         2.267134
 H         5.117695         0.893232        -0.146849
 H         3.363679         2.342900        -1.289354
 H         3.510663         0.756756        -2.165519
 H         4.062622        -1.713315         0.265681
