19
Iteration:  3035
 C        -0.012384        -0.362567        -0.126503
 C         1.400700         0.125884         0.053640
 C         2.058526         0.657329         1.382661
 C         3.504333         0.342360         1.246384
 C         4.049854         0.634994        -0.139280
 C         3.187626         1.540695        -1.057511
 O         1.806435         0.975740        -1.109414
 C         3.481390        -0.807713         0.286338
 O         2.189870        -1.030535        -0.125282
 H        -0.362731        -0.856047         0.762133
 H        -0.803583         0.427294        -0.079354
 H        -0.399381        -0.986398        -0.993026
 H         1.861559         1.767423         1.454662
 H         1.560926         0.050446         2.110083
 H         4.050466         0.303641         2.162101
 H         5.071317         0.748673        -0.324423
 H         2.979161         2.532315        -0.598067
 H         3.639885         1.497161        -2.047504
 H         4.229428        -1.553598         0.105716
