19
Iteration:  4138
 C        -0.008176        -0.271862        -0.149498
 C         1.475895         0.159315        -0.032632
 C         1.916355         0.466675         1.427876
 C         3.419538         0.382962         1.239487
 C         4.064102         0.698462        -0.083021
 C         3.164413         1.212862        -1.280879
 O         1.785743         1.208465        -0.939856
 C         3.578984        -0.713625         0.363843
 O         2.250193        -1.010875        -0.145591
 H        -0.336536        -1.275883         0.338978
 H        -0.587513         0.586024         0.260717
 H        -0.272107        -0.482877        -1.163167
 H         1.438308         1.383687         1.751295
 H         1.481385        -0.415738         1.980620
 H         3.930203         0.488568         2.204922
 H         5.227532         0.882958        -0.011050
 H         3.543492         2.217031        -1.679870
 H         3.248348         0.494136        -2.112680
 H         4.227113        -1.615358         0.526620
