19
Iteration:  4812charge 0 multiplicity 1
 C         0.016609        -0.338257        -0.089335
 C         1.403323         0.117916         0.093157
 C         1.958700         0.618482         1.443173
 C         3.446888         0.358258         1.245787
 C         4.030444         0.583321        -0.144567
 C         3.197943         1.375519        -1.148994
 O         1.761357         1.149465        -0.955550
 C         3.518682        -0.728597         0.245060
 O         2.251395        -1.048826        -0.265901
 H        -0.159639        -1.126682         0.648300
 H        -0.615419         0.508082         0.114625
 H        -0.070994        -0.764070        -1.089684
 H         1.728599         1.628824         1.517966
 H         1.382863        -0.075230         2.124930
 H         4.060596         0.298291         2.134896
 H         5.143439         0.709691        -0.159458
 H         3.456792         2.524237        -1.061372
 H         3.516420         1.056426        -2.143634
 H         4.284611        -1.575949         0.272776
