19
Iteration:  1353
 C        -0.099626        -0.245770        -0.105717
 C         1.435113         0.068902         0.003928
 C         1.977241         0.655106         1.407420
 C         3.543787         0.474951         1.309158
 C         4.055503         0.624929        -0.140717
 C         3.079296         1.214246        -1.165392
 O         1.694734         1.102404        -0.880928
 C         3.638912        -0.727398         0.302562
 O         2.350942        -1.085335        -0.259027
 H        -0.663589        -0.888069         0.604236
 H        -0.560838         0.701418        -0.075094
 H        -0.404611        -0.555594        -1.116998
 H         1.667630         1.678544         1.428993
 H         1.333076         0.046318         2.166045
 H         4.131247         0.676470         2.231363
 H         5.138348         0.833841        -0.372621
 H         3.398454         2.141467        -1.600848
 H         3.111585         0.461428        -1.975047
 H         4.366556        -1.518985         0.169368
