19
Iteration:  4182
 C        -0.014993        -0.226811        -0.281702
 C         1.412655         0.036447         0.058314
 C         1.944969         0.600752         1.376797
 C         3.473253         0.396924         1.304343
 C         4.057603         0.674801        -0.077671
 C         3.124113         1.167710        -1.194814
 O         1.723311         1.159452        -0.828477
 C         3.587157        -0.711396         0.317563
 O         2.334317        -1.020081        -0.259754
 H        -0.388324        -1.085816         0.324396
 H        -0.554268         0.716336        -0.003553
 H        -0.227839        -0.581029        -1.256658
 H         1.670006         1.618298         1.521479
 H         1.640177         0.038015         2.314422
 H         4.083341         0.473400         2.215511
 H         5.108276         1.034555        -0.092751
 H         3.174072         2.186299        -1.619390
 H         3.335085         0.458517        -2.013584
 H         4.029420        -1.715244         0.540337
