19
Iteration:   914
 C        -0.028165        -0.248415        -0.133810
 C         1.484205         0.135898         0.144538
 C         2.010764         0.641912         1.438100
 C         3.491481         0.334579         1.321435
 C         4.030155         0.701057        -0.150421
 C         3.138973         1.201146        -1.246763
 O         1.684318         1.044738        -1.034682
 C         3.584306        -0.682197         0.254341
 O         2.252270        -1.025698        -0.110524
 H        -0.340525        -1.238489         0.385148
 H        -0.648811         0.600886         0.179539
 H        -0.040320        -0.294050        -1.295093
 H         1.783182         1.632933         1.509905
 H         1.619091         0.125802         2.311778
 H         4.247867         0.465594         2.085239
 H         5.071567         0.879410        -0.544969
 H         3.295137         2.251687        -1.423020
 H         3.250122         0.564969        -2.236190
 H         4.041048        -1.669766         0.377635
