19
Iteration:  4989charge 0 multiplicity 1
 C         0.062984        -0.200658        -0.233322
 C         1.453176         0.158874         0.071760
 C         1.954774         0.433368         1.514361
 C         3.493157         0.338419         1.335717
 C         3.981021         0.696712        -0.106437
 C         3.065203         1.224213        -1.277276
 O         1.708420         1.181628        -0.868682
 C         3.593028        -0.712867         0.229309
 O         2.308121        -1.057455        -0.245371
 H        -0.437250        -0.738427         0.640702
 H        -0.547140         0.759122        -0.180077
 H        -0.132879        -0.419254        -1.239399
 H         1.755409         1.446788         1.743361
 H         1.431973        -0.138129         2.335901
 H         4.160673         0.419803         2.218781
 H         5.176306         0.918677        -0.319116
 H         3.336368         2.186643        -1.485873
 H         3.273680         0.495461        -2.040868
 H         4.283517        -1.541757         0.293930
