19
Iteration:  4283
 C         0.066176        -0.121392        -0.073451
 C         1.535589         0.091817        -0.006984
 C         1.974583         0.607352         1.383980
 C         3.418541         0.368157         1.284778
 C         3.947863         0.697290        -0.111033
 C         3.116995         1.553053        -0.999982
 O         1.825805         0.835968        -1.137907
 C         3.523049        -0.728381         0.195756
 O         2.228700        -1.189720        -0.111641
 H        -0.307493        -0.767618         0.646211
 H        -0.503672         0.742750         0.088471
 H        -0.114029        -0.397251        -1.121156
 H         1.612588         1.618793         1.586503
 H         1.549473        -0.098716         2.061964
 H         4.110699         0.316297         2.171325
 H         4.968379         0.729597        -0.464909
 H         2.851406         2.484580        -0.674140
 H         3.523527         1.566284        -1.984795
 H         4.252006        -1.533061         0.152883
