19
Iteration:  1633charge 0 multiplicity 1
 C        -0.012081        -0.356147        -0.022101
 C         1.420955         0.136988         0.072454
 C         1.978869         0.621364         1.336726
 C         3.531019         0.456019         1.263897
 C         4.058475         0.585451        -0.141476
 C         3.176293         1.385825        -1.213399
 O         1.745778         1.121705        -1.057378
 C         3.539601        -0.753517         0.305552
 O         2.199530        -1.110393        -0.114592
 H        -0.312286        -0.961385         0.876750
 H        -0.654192         0.504594        -0.030096
 H        -0.064499        -0.913278        -1.029996
 H         1.689795         1.696982         1.472599
 H         1.494636         0.038274         2.160992
 H         4.239902         0.471122         2.024839
 H         5.074546         0.716861        -0.448489
 H         3.308115         2.502309        -1.117688
 H         3.399932         1.101914        -2.255813
 H         4.185493        -1.620453         0.428775
