19
Iteration:  3949charge 0 multiplicity 1
 C        -0.020499        -0.277393        -0.142964
 C         1.495062         0.108130         0.012680
 C         1.906173         0.585478         1.406403
 C         3.385448         0.399463         1.244021
 C         4.047236         0.670152        -0.068273
 C         3.135444         1.155997        -1.147070
 O         1.739162         1.280075        -0.890421
 C         3.619035        -0.763224         0.264955
 O         2.328564        -1.061306        -0.255551
 H        -0.297419        -1.180948         0.304473
 H        -0.604941         0.506657         0.378933
 H        -0.289968        -0.526228        -1.260302
 H         1.740257         1.712105         1.584455
 H         1.431868        -0.097898         2.118011
 H         3.919055         0.450609         2.196968
 H         5.058624         0.890030        -0.070478
 H         3.610446         2.086816        -1.623502
 H         3.179136         0.495711        -2.000916
 H         4.163461        -1.740956         0.421681
