19
Iteration:  1376
 C         0.125834        -0.285570        -0.010991
 C         1.453730         0.139005         0.070857
 C         1.963402         0.574768         1.506501
 C         3.376688         0.396317         1.211349
 C         3.999764         0.699520        -0.125140
 C         3.138808         1.170747        -1.357281
 O         1.779507         1.138364        -0.956761
 C         3.538710        -0.751224         0.297346
 O         2.244080        -1.003562        -0.199371
 H        -0.263354        -1.178816         0.488402
 H        -0.658505         0.382397         0.056797
 H         0.042291        -0.539714        -1.115036
 H         1.720455         1.648475         1.640171
 H         1.465609        -0.147831         2.324769
 H         3.930882         0.526065         2.152369
 H         5.037468         1.099816        -0.222102
 H         3.426949         2.243719        -1.556583
 H         3.284439         0.653503        -2.327811
 H         4.278917        -1.532965         0.496868
