19
Iteration:  2686
 C         0.011524        -0.238221        -0.040424
 C         1.496382        -0.004150         0.048035
 C         1.990798         0.813959         1.297593
 C         3.414172         0.287849         1.294690
 C         4.005524         0.566242        -0.210667
 C         3.140836         1.512526        -0.943055
 O         1.736479         1.010803        -1.087038
 C         3.601419        -0.780432         0.292909
 O         2.234271        -1.145705        -0.241296
 H        -0.292855        -0.988392         0.803883
 H        -0.660315         0.616052        -0.059334
 H        -0.210817        -0.744522        -0.964898
 H         2.008356         1.921861         0.914088
 H         1.454342         0.572328         2.275127
 H         4.107339         0.478487         2.092980
 H         5.082935         0.630576        -0.273976
 H         3.009770         2.509389        -0.304448
 H         3.620466         1.573965        -1.967013
 H         4.225360        -1.686515         0.409851
