19
Iteration:   701charge 0 multiplicity 1
 C         0.037961        -0.261209        -0.152116
 C         1.423590         0.090900        -0.024002
 C         1.962986         0.597333         1.403324
 C         3.535955         0.563895         1.176230
 C         4.091343         0.591181        -0.186906
 C         3.126567         1.236664        -1.262492
 O         1.711868         1.127246        -0.852194
 C         3.561536        -0.742320         0.381344
 O         2.199374        -1.117354        -0.112828
 H        -0.212431        -0.979299         0.564619
 H        -0.660760         0.593010         0.040243
 H        -0.309718        -0.610558        -1.143583
 H         1.516888         1.655633         1.559893
 H         1.910248         0.021757         2.284840
 H         4.230170         0.723529         1.995946
 H         5.138284         0.966742        -0.406882
 H         3.513537         2.254405        -1.378017
 H         3.230412         0.666460        -2.285184
 H         3.987804        -1.737688         0.737942
