19
Iteration:  3381
 C         0.009407        -0.356448        -0.182914
 C         1.437223         0.074608         0.021928
 C         1.960743         0.621587         1.334481
 C         3.469430         0.358762         1.291682
 C         4.056614         0.592729        -0.065960
 C         3.101795         1.228689        -1.126181
 O         1.729608         1.321487        -0.839557
 C         3.600792        -0.748779         0.293302
 O         2.243915        -1.038700        -0.307660
 H        -0.215144        -0.903701         0.727158
 H        -0.704095         0.449480        -0.261136
 H        -0.132878        -1.064877        -1.010803
 H         1.789401         1.757981         1.447915
 H         1.591946         0.052956         2.178676
 H         4.183269         0.450321         2.140631
 H         5.161023         0.850827        -0.096855
 H         3.592143         2.258162        -1.475126
 H         3.059386         0.596471        -2.014124
 H         4.269256        -1.587473         0.473435
