19
Iteration:  2002charge 0 multiplicity 1
 C        -0.008076        -0.304919        -0.048952
 C         1.458354         0.117886         0.148686
 C         1.972310         0.625158         1.503900
 C         3.478007         0.407189         1.286256
 C         4.012944         0.624908        -0.182102
 C         3.200605         1.132375        -1.321473
 O         1.725393         1.156930        -0.924626
 C         3.544588        -0.712126         0.291307
 O         2.243925        -0.958281        -0.300853
 H        -0.385413        -0.791000         0.814563
 H        -0.655476         0.480204        -0.482508
 H         0.007114        -1.100638        -0.876475
 H         1.712379         1.690742         1.673846
 H         1.636358         0.027078         2.317855
 H         4.218060         0.355606         2.124505
 H         5.066153         0.948946        -0.225627
 H         3.370017         2.206134        -1.509778
 H         3.324328         0.605192        -2.249928
 H         4.096701        -1.648400         0.439509
