19
Iteration:  2591charge 0 multiplicity 1
 C         0.013495        -0.300246        -0.092640
 C         1.429190         0.063853         0.017421
 C         1.962002         0.722811         1.429905
 C         3.451370         0.329255         1.292893
 C         4.010150         0.617462        -0.056258
 C         3.114187         1.214331        -1.211484
 O         1.718402         1.225678        -0.861312
 C         3.591082        -0.756542         0.303264
 O         2.311299        -1.022607        -0.342859
 H        -0.136966        -1.081518         0.715932
 H        -0.704939         0.522308        -0.065914
 H        -0.134227        -0.838405        -1.057417
 H         1.606035         1.720281         1.261929
 H         1.554285         0.257618         2.333228
 H         4.070414         0.224818         2.151853
 H         5.050899         0.690308        -0.336350
 H         3.565746         2.190017        -1.579602
 H         3.306513         0.602209        -2.205594
 H         4.293734        -1.589381         0.404405
