19
Iteration:  1203charge 0 multiplicity 1
 C         0.038582        -0.246605        -0.062136
 C         1.438249         0.087058         0.043607
 C         1.974510         0.627898         1.433243
 C         3.451033         0.429456         1.255351
 C         4.020796         0.622448        -0.169980
 C         3.168941         1.400664        -1.199387
 O         1.779540         1.005135        -1.037737
 C         3.601953        -0.715600         0.256427
 O         2.162405        -1.099892        -0.151281
 H        -0.126180        -1.025496         0.795013
 H        -0.609466         0.567040         0.206828
 H        -0.282773        -0.777121        -1.020969
 H         1.668247         1.704359         1.491789
 H         1.617529         0.076353         2.311417
 H         4.114977         0.424652         2.132184
 H         5.100848         0.861215        -0.016151
 H         3.194700         2.451242        -1.163464
 H         3.556108         1.005127        -2.183056
 H         4.169704        -1.607942         0.329501
