19
Iteration:  2438
 C        -0.092076        -0.333494        -0.123173
 C         1.445067         0.091308         0.048141
 C         2.096475         0.776404         1.292954
 C         3.527379         0.304961         1.279932
 C         4.057242         0.599126        -0.080756
 C         3.131967         1.410758        -1.056838
 O         1.693577         0.999045        -1.017082
 C         3.565478        -0.760034         0.261132
 O         2.228199        -1.054578        -0.176711
 H        -0.783841        -0.470958         0.832820
 H        -0.566555         0.555865        -0.628021
 H        -0.147233        -1.246195        -0.701464
 H         2.003341         1.844780         1.081475
 H         1.536913         0.536329         2.233334
 H         4.283274         0.310448         2.094626
 H         5.059648         0.837026        -0.385461
 H         3.108204         2.458033        -0.751666
 H         3.521657         1.206139        -2.008695
 H         4.261969        -1.588942         0.426098
