19
Iteration:  2414charge 0 multiplicity 1
 C         0.072551        -0.182165        -0.108933
 C         1.505719         0.162823         0.013862
 C         1.927275         0.563369         1.498954
 C         3.431071         0.385870         1.269631
 C         3.966101         0.613180        -0.143742
 C         3.118391         1.347179        -1.252807
 O         1.726621         1.070854        -1.006827
 C         3.612434        -0.742593         0.268321
 O         2.255110        -1.124386        -0.125779
 H        -0.544496        -0.194893         0.839774
 H        -0.445682         0.619355        -0.740607
 H        -0.025483        -1.210179        -0.557496
 H         1.681156         1.611246         1.796410
 H         1.583029        -0.158423         2.245048
 H         4.221155         0.469921         2.094746
 H         5.011784         0.877594        -0.402891
 H         3.256591         2.470420        -1.300281
 H         3.386127         0.746502        -2.143285
 H         4.369187        -1.519457         0.297290
