19
Iteration:  4803charge 0 multiplicity 1
 C         0.082100        -0.346347        -0.086208
 C         1.489690         0.113481         0.059913
 C         1.912497         0.578105         1.414713
 C         3.438019         0.404618         1.295139
 C         4.025334         0.563247        -0.176885
 C         3.152933         1.369634        -1.198407
 O         1.777826         1.191191        -0.883031
 C         3.535461        -0.796713         0.275826
 O         2.211526        -1.035582        -0.309280
 H        -0.218537        -1.163494         0.664538
 H        -0.550082         0.537223        -0.102004
 H         0.006761        -0.686198        -1.055488
 H         1.617080         1.589884         1.574051
 H         1.532222         0.080997         2.355604
 H         4.078709         0.582030         2.139278
 H         5.190014         0.778199        -0.226176
 H         3.313931         2.506261        -1.053604
 H         3.327670         1.021588        -2.244898
 H         4.044902        -1.736502         0.562735
