19
Iteration:  3526
 C         0.084810        -0.290313        -0.219969
 C         1.457627         0.154569         0.037755
 C         1.935624         0.611801         1.457261
 C         3.502429         0.387380         1.317661
 C         3.973140         0.620005        -0.134369
 C         3.160877         1.320055        -1.190597
 O         1.757145         1.106713        -0.922191
 C         3.500234        -0.700576         0.299142
 O         2.227244        -1.088331        -0.226140
 H        -0.285804        -0.848040         0.648880
 H        -0.560108         0.611609        -0.319386
 H         0.022432        -0.987208        -1.072380
 H         1.727177         1.690427         1.577343
 H         1.457522        -0.093873         2.223283
 H         4.129101         0.336009         2.241747
 H         5.036570         0.673271        -0.275272
 H         3.346951         2.320997        -1.108262
 H         3.513609         0.944678        -2.158643
 H         4.287736        -1.544149         0.363613
