19
Iteration:  4925
 C         0.044526        -0.319245        -0.065979
 C         1.494484         0.158171         0.060883
 C         2.009656         0.624209         1.401464
 C         3.417479         0.311040         1.261549
 C         3.974969         0.634558        -0.104419
 C         3.144528         1.393301        -1.095923
 O         1.723398         1.116844        -0.967771
 C         3.548073        -0.849650         0.208467
 O         2.262346        -1.033330        -0.266982
 H        -0.290526        -1.081193         0.638557
 H        -0.642186         0.584424        -0.134049
 H        -0.048852        -0.798296        -1.056491
 H         1.963999         1.766216         1.442184
 H         1.432627         0.185543         2.267815
 H         4.070803         0.472791         2.137599
 H         5.130705         0.838534        -0.238620
 H         3.306813         2.495352        -0.893596
 H         3.381206         1.154369        -2.163504
 H         4.123022        -1.754094         0.311264
