19
Iteration:  2035
 C        -0.013951        -0.111958         0.006574
 C         1.484170         0.088622         0.029961
 C         2.007574         0.607614         1.355630
 C         3.521565         0.356196         1.288390
 C         3.965610         0.704116        -0.137701
 C         3.126089         1.331329        -1.193774
 O         1.721814         0.993162        -1.088205
 C         3.622945        -0.693109         0.254149
 O         2.224849        -1.184800        -0.117323
 H        -0.350995        -0.650013         0.858939
 H        -0.537375         0.881432         0.058287
 H        -0.201586        -0.738450        -0.909205
 H         1.588004         1.633012         1.473111
 H         1.501062        -0.002087         2.067691
 H         4.096687         0.187800         2.190240
 H         5.011597         1.066597        -0.292528
 H         3.330815         2.461173        -1.046578
 H         3.407883         1.061911        -2.216355
 H         4.245137        -1.607521         0.412163
