19
Iteration:  4128charge 0 multiplicity 1
 C        -0.019084        -0.288088        -0.146337
 C         1.424221         0.131794         0.018517
 C         1.934705         0.555379         1.413530
 C         3.448474         0.420209         1.289499
 C         4.015157         0.679277        -0.070700
 C         3.267867         1.217536        -1.210862
 O         1.726399         1.209934        -1.016111
 C         3.577045        -0.757218         0.323200
 O         2.229766        -1.053368        -0.179141
 H        -0.146898        -1.253568         0.421853
 H        -0.804575         0.447945         0.064125
 H        -0.119249        -0.442548        -1.188117
 H         1.659603         1.447904         1.925410
 H         1.789401        -0.260922         2.157338
 H         4.127803         0.414310         2.168791
 H         5.126259         0.975046        -0.180015
 H         3.379646         2.379533        -1.406419
 H         3.585675         0.663789        -2.092155
 H         4.124628        -1.744938         0.399567
