19
Iteration:  4355charge 0 multiplicity 1
 C         0.046310        -0.363529        -0.115318
 C         1.433920         0.145558         0.072690
 C         1.918410         0.642761         1.418101
 C         3.434525         0.276346         1.296941
 C         4.010111         0.713274        -0.019286
 C         3.159854         1.151942        -1.290815
 O         1.746688         1.232104        -0.901572
 C         3.569356        -0.750139         0.283140
 O         2.302514        -0.970770        -0.301076
 H        -0.135197        -1.248955         0.483213
 H        -0.794409         0.351496         0.193162
 H        -0.087953        -0.541669        -1.221945
 H         1.821975         1.699009         1.521837
 H         1.375766         0.105238         2.272320
 H         4.067206         0.265635         2.151123
 H         5.011640         0.915385         0.038745
 H         3.509926         2.205921        -1.636289
 H         3.090550         0.452422        -2.095548
 H         4.290390        -1.540797         0.340287
