19
Iteration:   554charge 0 multiplicity 1
 C         0.018561        -0.177809        -0.106293
 C         1.412751         0.046751         0.081260
 C         1.968956         0.658233         1.400010
 C         3.512435         0.521667         1.229629
 C         4.059775         0.614963        -0.211071
 C         3.125340         1.297701        -1.210649
 O         1.748552         1.005084        -0.971674
 C         3.554603        -0.722831         0.316173
 O         2.261440        -1.163160        -0.103833
 H        -0.425129        -1.094149         0.243113
 H        -0.695676         0.605192         0.211331
 H        -0.134540        -0.330185        -1.152669
 H         1.513939         1.687780         1.582930
 H         1.534154        -0.016973         2.284456
 H         4.040204         0.770951         2.154722
 H         5.100483         0.594503        -0.435801
 H         3.192617         2.409779        -1.081109
 H         3.266226         1.111112        -2.382432
 H         4.427503        -1.450947         0.348654
