19
Iteration:  3351charge 0 multiplicity 1
 C         0.013569        -0.232638        -0.114407
 C         1.418085         0.125940         0.120583
 C         1.914840         0.489742         1.514610
 C         3.392985         0.329592         1.377397
 C         4.017783         0.672777        -0.137185
 C         3.142158         1.234863        -1.282010
 O         1.816719         1.131514        -0.946652
 C         3.602694        -0.668460         0.245696
 O         2.262885        -0.984537        -0.327424
 H        -0.318694        -0.871928         0.807966
 H        -0.662429         0.579435        -0.393089
 H         0.047370        -0.876357        -0.976447
 H         1.546692         1.521309         1.870640
 H         1.361902        -0.185427         2.233302
 H         4.257279         0.428594         2.050555
 H         4.944416         0.912438        -0.009164
 H         3.665399         2.242347        -1.521088
 H         3.336357         0.550416        -2.136952
 H         4.327594        -1.437757         0.310853
