19
Iteration:  1708charge 0 multiplicity 1
 C         0.002269        -0.122833        -0.037194
 C         1.469726         0.032089         0.072262
 C         1.985597         0.673697         1.374683
 C         3.502023         0.411829         1.203939
 C         3.983099         0.634729        -0.188517
 C         3.095320         1.541793        -1.087283
 O         1.796544         0.894003        -1.206748
 C         3.573465        -0.774538         0.227282
 O         2.218482        -1.210728         0.026184
 H        -0.296978        -1.008021         0.555337
 H        -0.587461         0.670176         0.253279
 H        -0.105107        -0.519019        -1.042797
 H         1.742667         1.785166         1.523482
 H         1.627016         0.081252         2.237271
 H         4.120641         0.480133         2.039786
 H         5.019848         0.864474        -0.322996
 H         3.089437         2.555012        -0.664535
 H         3.395353         1.672719        -2.166015
 H         4.222102        -1.660376         0.240180
