19
Iteration:  3307charge 0 multiplicity 1
 C        -0.016217        -0.181371        -0.111375
 C         1.511070         0.024155         0.035292
 C         1.913682         0.623419         1.375101
 C         3.438346         0.399548         1.286699
 C         4.045214         0.623724        -0.125876
 C         3.153911         1.426178        -1.102308
 O         1.756206         1.018245        -0.985688
 C         3.600819        -0.754811         0.228796
 O         2.252576        -1.176367        -0.214384
 H        -0.423483        -1.051922         0.528330
 H        -0.611743         0.724510         0.088736
 H        -0.397710        -0.325096        -1.145931
 H         1.834547         1.795739         1.442877
 H         1.543341         0.276203         2.378415
 H         4.038657         0.569823         2.236944
 H         4.990184         0.827220        -0.361651
 H         3.186422         2.486640        -0.667316
 H         3.408645         1.489691        -2.169570
 H         4.336808        -1.577578         0.379702
