19
Iteration:  1676charge 0 multiplicity 1
 C        -0.047860        -0.145827         0.026442
 C         1.464107         0.003433         0.103356
 C         2.111675         0.769002         1.307456
 C         3.517392         0.330777         1.291347
 C         3.983211         0.650288        -0.141102
 C         3.050305         1.509551        -1.007669
 O         1.796179         0.800876        -1.199139
 C         3.557377        -0.732723         0.236922
 O         2.250363        -1.125572        -0.171443
 H        -0.482615        -0.765679         0.834812
 H        -0.715590         0.620588        -0.179489
 H        -0.186697        -0.737958        -0.913480
 H         1.855095         1.907998         1.108319
 H         1.604998         0.536568         2.286071
 H         3.887209         0.357203         2.249364
 H         5.031301         0.778540        -0.279673
 H         2.835597         2.499635        -0.586183
 H         3.425720         1.632000        -2.058981
 H         4.177799        -1.634710         0.210597
