19
Iteration:  2216charge 0 multiplicity 1
 C         0.028033        -0.280663        -0.094578
 C         1.487925         0.064023         0.073386
 C         2.000240         0.713426         1.320880
 C         3.469009         0.394789         1.194862
 C         4.014800         0.514366        -0.248630
 C         3.098355         1.316833        -1.167909
 O         1.693427         1.197722        -0.893198
 C         3.575666        -0.788343         0.363889
 O         2.270976        -1.101489        -0.167394
 H        -0.304451        -0.835200         0.815228
 H        -0.597433         0.613506        -0.300780
 H        -0.209826        -1.048365        -1.020323
 H         1.638292         1.781651         1.296421
 H         1.726117         0.211357         2.275942
 H         4.036901         0.579622         2.099052
 H         5.072384         0.680405        -0.386717
 H         3.355085         2.390661        -1.021909
 H         3.419665         1.203084        -2.227465
 H         4.149248        -1.701032         0.688089
