19
Iteration:  1936
 C        -0.019116        -0.196703        -0.098946
 C         1.414500         0.149353         0.068145
 C         2.032903         0.625955         1.495995
 C         3.518155         0.408181         1.228542
 C         4.035719         0.635849        -0.137782
 C         3.148348         1.205247        -1.237214
 O         1.682435         0.953415        -0.963165
 C         3.602438        -0.671979         0.272960
 O         2.222951        -1.015125        -0.175764
 H        -0.172343        -1.099623         0.459278
 H        -0.610365         0.681240         0.112829
 H        -0.022951        -0.314882        -1.289342
 H         1.586332         1.631387         1.792171
 H         1.605863        -0.078523         2.128150
 H         4.271866         0.448139         2.092738
 H         5.056372         0.919486        -0.309271
 H         3.252915         2.321556        -1.309395
 H         3.465047         0.840607        -2.169111
 H         4.087942        -1.605686         0.167940
