19
Iteration:   702
 C         0.047829        -0.261541        -0.142138
 C         1.432670         0.092298        -0.022294
 C         1.952962         0.604336         1.404280
 C         3.527753         0.573624         1.170814
 C         4.093605         0.584571        -0.186692
 C         3.129621         1.226872        -1.259552
 O         1.708547         1.132976        -0.850780
 C         3.558436        -0.752602         0.376410
 O         2.202666        -1.116095        -0.123513
 H        -0.245277        -1.019576         0.555155
 H        -0.687766         0.617436         0.060186
 H        -0.305887        -0.612381        -1.137978
 H         1.556733         1.623223         1.544238
 H         1.896857         0.012598         2.277618
 H         4.230272         0.750604         1.982895
 H         5.120985         0.976466        -0.375804
 H         3.505111         2.271201        -1.368317
 H         3.230050         0.660308        -2.255224
 H         4.008806        -1.730970         0.769307
