19
Iteration:  1265
 C        -0.032090        -0.188822        -0.027050
 C         1.492710         0.019967         0.090787
 C         2.003362         0.762575         1.244722
 C         3.434155         0.393817         1.289768
 C         4.002412         0.496303        -0.209742
 C         3.115229         1.490917        -1.001243
 O         1.722955         0.919546        -1.045398
 C         3.564843        -0.747848         0.242874
 O         2.310971        -1.173080        -0.184919
 H        -0.347482        -1.030299         0.594233
 H        -0.534201         0.767127         0.172210
 H        -0.169105        -0.454532        -1.050544
 H         1.882497         1.788175         1.040354
 H         1.379817         0.757343         2.233039
 H         4.129027         0.523304         2.109371
 H         5.039168         0.803214        -0.229960
 H         3.108357         2.576321        -0.523012
 H         3.376571         1.582966        -2.057734
 H         4.430783        -1.371126         0.380914
