19
Iteration:  1651
 C         0.042522        -0.266587         0.032734
 C         1.482347         0.069479        -0.086756
 C         1.962907         0.740703         1.289211
 C         3.461516         0.411188         1.167451
 C         3.996040         0.556652        -0.217658
 C         3.153483         1.438588        -1.029691
 O         1.760244         1.003524        -1.042994
 C         3.549810        -0.747386         0.298013
 O         2.244922        -1.140018        -0.097646
 H        -0.046751        -0.749861         1.018165
 H        -0.705187         0.521107        -0.116561
 H        -0.389719        -0.881603        -0.686372
 H         1.783849         1.865809         1.545631
 H         1.524341         0.132888         2.064154
 H         4.010481         0.582630         2.155013
 H         5.115896         0.660013        -0.258130
 H         3.169213         2.426170        -0.603344
 H         3.334773         1.453452        -2.157631
 H         4.144737        -1.636703         0.391368
