19
Iteration:   608
 C         0.065572        -0.292788         0.056000
 C         1.474347         0.109198         0.022643
 C         2.007078         0.779146         1.234796
 C         3.457134         0.382993         1.228437
 C         4.007872         0.615135        -0.215673
 C         3.139088         1.490333        -1.030736
 O         1.847241         0.880843        -1.106643
 C         3.463548        -0.782210         0.272681
 O         2.189357        -1.108895        -0.115030
 H        -0.085540        -0.917336         0.953221
 H        -0.633650         0.554604         0.214555
 H        -0.313871        -0.726296        -0.839514
 H         1.741751         1.854515         1.200098
 H         1.463101         0.207871         2.115049
 H         4.011026         0.375720         2.169599
 H         5.045660         0.767196        -0.291545
 H         3.036198         2.556491        -0.723680
 H         3.401045         1.550712        -2.119137
 H         4.181956        -1.577970         0.591432
