19
Iteration:  2634
 C        -0.025489        -0.167897        -0.088625
 C         1.512417         0.097109         0.028102
 C         1.957660         0.528063         1.546989
 C         3.474377         0.409684         1.261394
 C         3.995084         0.657967        -0.205671
 C         3.160251         1.488330        -1.110744
 O         1.836882         0.909349        -1.113440
 C         3.512249        -0.685083         0.196692
 O         2.240017        -1.147565        -0.133004
 H        -0.577637        -0.254067         0.899816
 H        -0.429745         0.770104        -0.491302
 H        -0.418800        -0.943045        -0.794601
 H         1.708154         1.523427         1.930035
 H         1.535753        -0.274563         2.189636
 H         4.071002         0.209024         2.119946
 H         5.085157         0.683640        -0.155700
 H         3.021171         2.559950        -0.873191
 H         3.449161         1.819178        -2.143920
 H         4.098457        -1.600978         0.267712
