19
Iteration:  2262
 C        -0.099705        -0.163172         0.056689
 C         1.520329         0.085566         0.009261
 C         2.074816         0.669863         1.384557
 C         3.552511         0.290906         1.304849
 C         4.032714         0.735787        -0.105687
 C         3.010440         1.482754        -1.063561
 O         1.822586         0.756957        -1.306600
 C         3.529009        -0.730871         0.259750
 O         2.195354        -1.076900        -0.083631
 H        -0.495744        -1.107886         0.481599
 H        -0.647527         0.768836         0.418494
 H        -0.435957        -0.074757        -1.097693
 H         2.082429         1.827305         1.372598
 H         1.457258         0.271499         2.255652
 H         4.194995         0.107436         2.121145
 H         5.103133         0.945671        -0.181411
 H         2.978459         2.554005        -0.818919
 H         3.637451         1.532719        -2.008026
 H         4.204110        -1.543210         0.093006
