19
Iteration:  4519charge 0 multiplicity 1
 C         0.007521        -0.136373        -0.181593
 C         1.493930         0.084936         0.031810
 C         1.969003         0.508865         1.508837
 C         3.461299         0.348860         1.299198
 C         3.938346         0.730994        -0.093211
 C         3.091256         1.299984        -1.186705
 O         1.764838         1.049072        -1.017622
 C         3.599602        -0.743467         0.203802
 O         2.293212        -1.060770        -0.146528
 H        -0.277032        -1.060060         0.358373
 H        -0.708059         0.651778         0.123757
 H        -0.165884        -0.243432        -1.325211
 H         1.603013         1.439773         1.820648
 H         1.617980        -0.256392         2.334122
 H         4.244986         0.423795         2.160142
 H         4.877422         1.066711        -0.205867
 H         3.355560         2.372096        -1.141535
 H         3.452528         1.028660        -2.200881
 H         4.146320        -1.733051         0.266727
