19
Iteration:  2916charge 0 multiplicity 1
 C         0.007558        -0.295097        -0.158323
 C         1.466753         0.090489         0.061759
 C         1.953177         0.673678         1.303836
 C         3.481401         0.405232         1.262220
 C         4.058611         0.592728        -0.115331
 C         3.132747         1.361679        -1.074788
 O         1.727284         1.075789        -0.919485
 C         3.528322        -0.758853         0.229801
 O         2.275197        -1.106516        -0.194490
 H        -0.326457        -1.169667         0.363847
 H        -0.553760         0.561473         0.331138
 H        -0.427122        -0.300071        -1.219841
 H         1.762841         1.813034         1.224383
 H         1.664122         0.181841         2.287640
 H         4.056406         0.469890         2.202472
 H         5.099321         0.849259        -0.317528
 H         3.478852         2.446115        -0.919309
 H         3.354596         1.089775        -2.159000
 H         4.114415        -1.664402         0.469473
