19
Iteration:  4084
 C        -0.018937        -0.237931        -0.097403
 C         1.473825         0.067599         0.019294
 C         2.027380         0.738215         1.236877
 C         3.472002         0.328920         1.253128
 C         4.032916         0.598811        -0.096980
 C         3.116831         1.518686        -0.916972
 O         1.758448         1.024468        -1.136984
 C         3.560793        -0.791668         0.234313
 O         2.223722        -1.224033        -0.125565
 H        -0.347262        -0.949467         0.731123
 H        -0.593654         0.698769        -0.135611
 H        -0.288645        -0.702217        -1.003943
 H         1.808989         1.780187         1.037452
 H         1.400045         0.459794         2.120728
 H         3.983630         0.376670         2.225579
 H         5.210709         0.801227        -0.054155
 H         3.197838         2.560559        -0.310380
 H         3.462883         1.704430        -1.926212
 H         4.279268        -1.593181         0.470414
