19
Iteration:  2266charge 0 multiplicity 1
 C        -0.070207        -0.129361         0.043705
 C         1.538595         0.110863        -0.031695
 C         2.070601         0.700278         1.370024
 C         3.550593         0.256762         1.321943
 C         4.026363         0.731268        -0.094943
 C         2.995663         1.454033        -1.039947
 O         1.798758         0.740975        -1.276932
 C         3.538088        -0.730030         0.230276
 O         2.219502        -1.081897        -0.078324
 H        -0.539134        -1.091661         0.315988
 H        -0.516660         0.741902         0.476416
 H        -0.401108        -0.065353        -0.878430
 H         1.975379         1.757414         1.261811
 H         1.390657         0.329520         2.148461
 H         4.285351         0.225107         2.241886
 H         5.100483         0.978910        -0.212846
 H         2.707986         2.529364        -0.816861
 H         3.605360         1.580901        -2.014178
 H         4.112712        -1.645324         0.113049
