19
Iteration:  1301
 C         0.058825        -0.290738        -0.027434
 C         1.448655         0.163987         0.091293
 C         2.032701         0.644658         1.410156
 C         3.485124         0.382394         1.268980
 C         3.980568         0.635031        -0.158615
 C         3.188584         1.447212        -1.118009
 O         1.768923         0.944367        -1.185812
 C         3.505257        -0.699368         0.220634
 O         2.156853        -1.074876        -0.089336
 H        -0.125306        -0.975748         0.852246
 H        -0.806854         0.323158        -0.001066
 H        -0.016889        -0.977673        -0.946653
 H         1.732078         1.710391         1.558501
 H         1.540681        -0.167180         2.000815
 H         4.126919         0.412094         2.165600
 H         5.112122         0.651665        -0.174057
 H         3.443390         2.564952        -0.804547
 H         3.448362         1.376457        -2.174013
 H         4.138540        -1.598925         0.225740
