19
Iteration:  1381
 C         0.119821        -0.354898         0.010860
 C         1.502989         0.204198         0.080440
 C         1.932812         0.546518         1.489022
 C         3.402066         0.427638         1.229802
 C         4.007034         0.692282        -0.163586
 C         3.151126         1.225302        -1.337261
 O         1.797348         1.140766        -0.977548
 C         3.525931        -0.745138         0.316522
 O         2.197894        -1.033520        -0.191576
 H        -0.180622        -1.283577         0.497998
 H        -0.696231         0.484217         0.079302
 H         0.129002        -0.498804        -1.068094
 H         1.655191         1.602715         1.751956
 H         1.387163        -0.071736         2.089213
 H         3.931981         0.603482         2.155080
 H         5.043057         0.967936        -0.194104
 H         3.516284         2.235739        -1.644608
 H         3.201353         0.546210        -2.210848
 H         4.193550        -1.617807         0.293070
