19
Iteration:  1319
 C         0.037056        -0.264693        -0.048575
 C         1.502851         0.116926         0.005700
 C         1.891766         0.657129         1.493785
 C         3.430342         0.395186         1.276254
 C         3.995166         0.599619        -0.226512
 C         3.135277         1.405591        -1.204136
 O         1.799170         1.009732        -1.005197
 C         3.534641        -0.794149         0.243797
 O         2.270106        -1.079529        -0.139189
 H        -0.344500        -0.802272         0.834005
 H        -0.480250         0.684941        -0.123191
 H        -0.173181        -0.842931        -0.923771
 H         1.735067         1.692027         1.639528
 H         1.498199        -0.018479         2.362464
 H         4.217243         0.550260         2.031434
 H         5.039521         0.936708        -0.327982
 H         3.105143         2.492660        -1.189811
 H         3.429996         1.141869        -2.246996
 H         4.344893        -1.482555         0.319262
