19
Iteration:  1884
 C         0.008683        -0.267013         0.119267
 C         1.466265         0.059664         0.008807
 C         2.014495         0.781382         1.243941
 C         3.469997         0.410073         1.195110
 C         4.011723         0.537407        -0.189154
 C         3.108235         1.494239        -0.963312
 O         1.837989         0.899233        -1.146958
 C         3.536291        -0.798897         0.261644
 O         2.179309        -1.104036        -0.171104
 H         0.065708        -1.029598         0.814527
 H        -0.513730         0.629758         0.458168
 H        -0.446731        -0.610903        -0.830851
 H         1.826121         1.859549         1.116175
 H         1.484580         0.442368         2.117537
 H         4.003110         0.712132         2.146545
 H         5.062365         0.817314        -0.420203
 H         3.003842         2.395253        -0.357813
 H         3.614894         1.792551        -1.949302
 H         4.041345        -1.719656         0.416522
