19
Iteration:   763charge 0 multiplicity 1
 C        -0.023634        -0.203262         0.011556
 C         1.500770         0.139028         0.034654
 C         1.963625         0.677896         1.363373
 C         3.495369         0.405283         1.303890
 C         3.983460         0.658147        -0.121718
 C         3.169551         1.183862        -1.196145
 O         1.707150         1.036743        -1.073238
 C         3.544714        -0.771551         0.285178
 O         2.275955        -1.044666        -0.176358
 H        -0.118459        -1.101194         0.700206
 H        -0.674033         0.575409         0.275012
 H        -0.197370        -0.547727        -1.040686
 H         1.658218         1.817222         1.580235
 H         1.579085         0.108580         2.313281
 H         4.046320         0.452823         2.244361
 H         5.071596         0.826408        -0.419422
 H         3.236956         2.266914        -1.360470
 H         3.484596         0.784811        -2.134615
 H         4.380888        -1.500914         0.213170
