19
Iteration:  1894charge 0 multiplicity 1
 C         0.058228        -0.217757         0.155765
 C         1.527664         0.084477        -0.046595
 C         1.941253         0.767683         1.198621
 C         3.387661         0.369893         1.259049
 C         4.069037         0.554821        -0.240733
 C         3.110267         1.467769        -1.023006
 O         1.806693         0.950458        -1.083573
 C         3.499095        -0.781102         0.250736
 O         2.221416        -1.197430        -0.151992
 H        -0.132572        -1.002305         0.832191
 H        -0.472184         0.586262         0.648925
 H        -0.477914        -0.478738        -0.834769
 H         1.811300         1.876101         1.209767
 H         1.417257         0.423833         2.020553
 H         4.129988         0.647287         2.121095
 H         5.094126         0.921404         0.012699
 H         3.190773         2.454249        -0.559122
 H         3.393366         1.660310        -2.136229
 H         4.283678        -1.474994         0.346002
