19
Iteration:  1422
 C        -0.036437        -0.266251        -0.073462
 C         1.446501         0.024503         0.139015
 C         1.953977         0.767015         1.301608
 C         3.491609         0.377497         1.266013
 C         4.062328         0.580507        -0.185941
 C         3.135315         1.368244        -1.146672
 O         1.691185         1.024381        -0.938812
 C         3.609074        -0.764576         0.330580
 O         2.296739        -1.091919        -0.254004
 H        -0.452361        -1.011910         0.552880
 H        -0.675578         0.594244         0.188681
 H        -0.188723        -0.534866        -1.128826
 H         1.655389         1.892833         1.236044
 H         1.603766         0.299283         2.231839
 H         4.258716         0.638911         1.951057
 H         5.059377         0.925777        -0.141970
 H         3.110909         2.503442        -1.217014
 H         3.444375         1.007670        -2.099764
 H         4.235691        -1.657387         0.488457
