19
Iteration:   286charge 0 multiplicity 1
 C         0.028051        -0.300497         0.001158
 C         1.482733         0.181485        -0.022131
 C         1.842636         0.581828         1.325835
 C         3.451132         0.484055         1.246912
 C         4.103900         0.609996        -0.144245
 C         3.174881         1.227588        -1.196075
 O         1.757852         1.112126        -0.970783
 C         3.552313        -0.709878         0.296300
 O         2.251386        -1.039743        -0.188226
 H        -0.179843        -0.794175         0.963780
 H        -0.655389         0.473109         0.039545
 H        -0.241690        -1.014910        -0.699655
 H         1.403786         1.567346         1.577179
 H         1.728084        -0.110119         2.175214
 H         3.965094         0.293636         2.169401
 H         5.178976         0.655121        -0.246472
 H         3.408978         2.269401        -1.325773
 H         3.298440         0.808671        -2.312530
 H         4.125198        -1.563789         0.654343
