19
Iteration:  2990charge 0 multiplicity 1
 C        -0.048687        -0.177566        -0.152387
 C         1.499577         0.002200        -0.033795
 C         1.925102         0.541018         1.460574
 C         3.427365         0.353041         1.272251
 C         3.988261         0.637929        -0.100435
 C         3.107157         1.239051        -1.256286
 O         1.747450         1.184858        -0.865489
 C         3.599923        -0.713906         0.305853
 O         2.352373        -1.042057        -0.225841
 H        -0.541356        -0.758368         0.648598
 H        -0.586005         0.818916        -0.201100
 H        -0.225672        -0.696141        -1.178731
 H         1.775216         1.642144         1.748054
 H         1.705465        -0.119027         2.279298
 H         4.238991         0.599859         1.963375
 H         5.006167         1.002992        -0.199225
 H         3.285916         2.323797        -1.443423
 H         3.274779         0.485986        -2.030977
 H         4.292142        -1.536099         0.477588
