19
Iteration:   353charge 0 multiplicity 1
 C        -0.064970        -0.288454        -0.087869
 C         1.410336         0.090941         0.047342
 C         2.021861         0.676125         1.403946
 C         3.493782         0.505437         1.253758
 C         4.034018         0.613839        -0.161537
 C         3.192627         1.440080        -1.172523
 O         1.775134         1.002393        -1.101334
 C         3.547006        -0.832685         0.311428
 O         2.198575        -1.131932        -0.078064
 H        -0.212986        -1.112282         0.586280
 H        -0.628832         0.565140         0.182443
 H        -0.170291        -0.655774        -1.089144
 H         1.633805         1.662508         1.422638
 H         1.513312         0.063344         2.251560
 H         4.104883         0.788080         2.129326
 H         5.102760         0.664687        -0.352699
 H         3.319929         2.486968        -0.910290
 H         3.682064         1.477082        -2.237012
 H         4.262732        -1.707781         0.301369
