19
Iteration:  2849
 C        -0.076706        -0.133469        -0.022477
 C         1.411481         0.027044         0.023181
 C         1.978248         0.718515         1.301981
 C         3.465104         0.376089         1.241901
 C         4.061699         0.623676        -0.142798
 C         3.098461         1.518042        -0.913469
 O         1.799088         0.855761        -1.087759
 C         3.592373        -0.767220         0.210410
 O         2.296959        -1.196632        -0.232002
 H        -0.516588        -0.404610         1.004169
 H        -0.242142         0.915430        -0.317761
 H        -0.342181        -0.737925        -0.934224
 H         1.808050         1.871744         1.101199
 H         1.518535         0.274159         2.253202
 H         3.974497         0.356347         2.185625
 H         5.156432         0.766940        -0.209484
 H         2.793219         2.421477        -0.313508
 H         3.501880         1.812035        -1.939981
 H         4.253043        -1.564584         0.441797
