19
Iteration:  1267charge 0 multiplicity 1
 C        -0.046411        -0.185158        -0.039160
 C         1.484663         0.016269         0.088444
 C         2.005148         0.770580         1.252061
 C         3.446122         0.383777         1.287923
 C         4.014698         0.514225        -0.200728
 C         3.118140         1.489883        -1.005837
 O         1.726011         0.927005        -1.050162
 C         3.567282        -0.761048         0.250121
 O         2.305535        -1.172153        -0.182489
 H        -0.316827        -1.053695         0.642418
 H        -0.572943         0.707220         0.199417
 H        -0.264129        -0.554633        -1.082135
 H         1.903947         1.830381         1.042586
 H         1.369110         0.739684         2.216466
 H         4.131568         0.536029         2.136762
 H         5.100232         0.779442        -0.278349
 H         3.142949         2.555056        -0.506827
 H         3.289942         1.589230        -2.060290
 H         4.441898        -1.338647         0.363588
