19
Iteration:  2102charge 0 multiplicity 1
 C        -0.005341        -0.326145        -0.057498
 C         1.486859         0.208312         0.029105
 C         2.094029         0.772856         1.374824
 C         3.570298         0.287754         1.319416
 C         3.867641         0.602608        -0.124091
 C         3.140593         1.473463        -1.123604
 O         1.777799         0.920117        -1.148891
 C         3.511976        -0.786142         0.205620
 O         2.170534        -1.101902        -0.019412
 H        -0.089326        -1.344646         0.405313
 H        -0.683026         0.436908         0.486562
 H        -0.303459        -0.370522        -1.063678
 H         2.048977         1.849845         1.360834
 H         1.502399         0.461924         2.181585
 H         4.383446         0.429413         1.985258
 H         4.917971         0.889782        -0.394124
 H         3.001604         2.561555        -1.100224
 H         3.505759         1.314337        -2.093423
 H         4.351711        -1.494084        -0.008023
