19
Iteration:    73charge 0 multiplicity 1
 C        -0.099217        -0.185758        -0.174318
 C         1.395010         0.039974         0.126233
 C         2.060561         0.684679         1.403726
 C         3.503474         0.431443         1.338553
 C         4.019788         0.633386        -0.141790
 C         3.076780         1.292711        -1.246285
 O         1.658949         1.085845        -0.970866
 C         3.645487        -0.745735         0.357870
 O         2.360650        -1.206551        -0.196769
 H        -0.738282        -0.914297         0.387670
 H        -0.510318         0.870326        -0.146346
 H        -0.049681        -0.509303        -1.241536
 H         1.855939         1.846614         1.371402
 H         1.547462         0.323785         2.278341
 H         4.145052         0.519552         2.166939
 H         5.019006         0.838847        -0.423910
 H         3.265853         2.375507        -1.341110
 H         3.292860         0.820718        -2.235289
 H         4.441611        -1.429575         0.454064
