19
Iteration:  4304
 C        -0.099681        -0.259832        -0.121071
 C         1.428601         0.064191         0.014157
 C         1.951392         0.554430         1.405103
 C         3.460241         0.404068         1.250317
 C         4.088650         0.648394        -0.166925
 C         3.207549         1.490326        -1.079183
 O         1.836852         1.027908        -1.090017
 C         3.557946        -0.754568         0.251508
 O         2.221392        -1.106140        -0.092953
 H        -0.303873        -1.081107         0.486530
 H        -0.723532         0.481988         0.329295
 H        -0.430135        -0.466827        -1.160214
 H         1.549807         1.522427         1.656676
 H         1.676940        -0.182409         2.159888
 H         4.075822         0.668912         2.149498
 H         5.070540         1.003688        -0.223724
 H         3.351564         2.488444        -0.797545
 H         3.342555         1.359538        -2.130094
 H         4.132029        -1.682731         0.355102
