19
Iteration:  3065
 C         0.032575        -0.241538        -0.060834
 C         1.509559         0.111962        -0.023755
 C         2.029139         0.783711         1.295521
 C         3.434464         0.338706         1.244017
 C         3.958997         0.586332        -0.100497
 C         3.096653         1.513233        -0.891082
 O         1.796696         0.915960        -1.138108
 C         3.493240        -0.817361         0.222409
 O         2.251460        -1.169984        -0.174129
 H        -0.017750        -0.989264         0.763727
 H        -0.443211         0.707377         0.321791
 H        -0.450301        -0.767985        -0.994950
 H         1.930901         1.940559         1.304350
 H         1.427196         0.482990         2.144737
 H         4.060627         0.253313         2.123254
 H         5.004871         0.887928        -0.329269
 H         2.823373         2.505653        -0.407714
 H         3.701731         1.834376        -1.793707
 H         4.341880        -1.478270         0.173719
