19
Iteration:  4784charge 0 multiplicity 1
 C         0.020899        -0.277101        -0.216530
 C         1.430800         0.107982         0.021707
 C         1.971792         0.572724         1.416891
 C         3.442655         0.416236         1.196037
 C         3.978119         0.560971        -0.164604
 C         3.103622         1.249888        -1.178091
 O         1.734166         1.291611        -0.763420
 C         3.568142        -0.783136         0.334663
 O         2.344908        -1.072828        -0.273076
 H        -0.103399        -0.947363         0.726698
 H        -0.573520         0.687885        -0.237633
 H        -0.176651        -0.917968        -1.088614
 H         1.563076         1.613488         1.666658
 H         1.531617        -0.112006         2.159288
 H         4.115590         0.464283         2.041253
 H         5.109024         0.855168        -0.177486
 H         3.409210         2.258177        -1.179620
 H         3.190807         0.625241        -2.106483
 H         4.282728        -1.561378         0.410257
