19
Iteration:     4
 C         0.018243        -0.269096        -0.063363
 C         1.490430         0.095015         0.016115
 C         1.976488         0.684512         1.366783
 C         3.465016         0.425990         1.252674
 C         4.020657         0.621291        -0.172590
 C         3.130132         1.342032        -1.180514
 O         1.765705         1.002058        -1.053112
 C         3.534889        -0.740779         0.319294
 O         2.235821        -1.067402        -0.122564
 H        -0.312849        -1.014720         0.803680
 H        -0.571591         0.680307         0.114791
 H        -0.299799        -0.727632        -1.054005
 H         1.738533         1.693426         1.499293
 H         1.541437         0.197466         2.276863
 H         4.064066         0.392033         2.208426
 H         5.140561         0.708740        -0.186162
 H         3.261793         2.472865        -1.081858
 H         3.488574         1.054813        -2.154143
 H         4.100850        -1.692407         0.467554
