19
Iteration:  2181
 C         0.044974        -0.276147        -0.139828
 C         1.473934         0.157140         0.136854
 C         2.008085         0.622317         1.465755
 C         3.451221         0.311948         1.260161
 C         4.036073         0.749128        -0.098209
 C         3.099289         1.053618        -1.286963
 O         1.746736         1.117162        -0.908716
 C         3.537849        -0.670634         0.184570
 O         2.215787        -0.938406        -0.184047
 H        -0.449613        -0.685900         0.837625
 H        -0.646668         0.520211        -0.503075
 H         0.228060        -1.143711        -0.906058
 H         1.757663         1.624595         1.706870
 H         1.679884        -0.011361         2.297476
 H         4.171143         0.394650         2.178414
 H         5.100146         0.911303        -0.378962
 H         3.315375         2.080188        -1.655463
 H         3.260755         0.254950        -2.027064
 H         4.168401        -1.533355         0.219924
