19
Iteration:  3062
 C         0.059874        -0.257298        -0.064045
 C         1.472637         0.139713        -0.033338
 C         2.037169         0.794756         1.309316
 C         3.443389         0.325072         1.245614
 C         3.954131         0.579721        -0.094981
 C         3.092819         1.521023        -0.887093
 O         1.799771         0.915894        -1.158365
 C         3.518321        -0.804314         0.207946
 O         2.228111        -1.159471        -0.158680
 H        -0.078844        -1.005135         0.781385
 H        -0.517837         0.607851         0.269348
 H        -0.384009        -0.731147        -0.904778
 H         1.918854         1.872340         1.287894
 H         1.348872         0.426093         2.136708
 H         4.137374         0.174178         2.108694
 H         5.084895         0.836890        -0.288031
 H         2.853253         2.437221        -0.380438
 H         3.647928         1.778770        -1.830742
 H         4.408095        -1.467777         0.230326
