19
Iteration:  3317charge 0 multiplicity 1
 C        -0.039738        -0.141453        -0.114405
 C         1.439898         0.054956        -0.010251
 C         1.986379         0.576455         1.336436
 C         3.448012         0.396188         1.243550
 C         4.025901         0.660587        -0.165233
 C         3.135802         1.390492        -1.084895
 O         1.742616         1.064708        -0.926811
 C         3.631138        -0.731820         0.318134
 O         2.282420        -1.203459        -0.215320
 H        -0.425607        -0.883939         0.630935
 H        -0.432832         0.840259         0.155955
 H        -0.174466        -0.495431        -1.158779
 H         1.436647         1.610229         1.322872
 H         1.565103        -0.107374         2.104068
 H         3.993511         0.483755         2.226350
 H         5.025178         0.862069        -0.195688
 H         3.152384         2.577367        -0.981686
 H         3.481223         1.118566        -2.099452
 H         4.258092        -1.628773         0.536885
