19
Iteration:  4698
 C        -0.027690        -0.282304        -0.010388
 C         1.457177         0.071833         0.060772
 C         1.948816         0.732691         1.298015
 C         3.459584         0.353790         1.256370
 C         4.023639         0.593813        -0.139050
 C         3.199907         1.469465        -0.988027
 O         1.813430         1.058396        -1.025632
 C         3.519943        -0.769271         0.192031
 O         2.218745        -1.150234        -0.257733
 H        -0.168789        -1.277301         0.591524
 H        -0.859333         0.350246         0.407771
 H        -0.182107        -0.706162        -1.032422
 H         1.679631         1.878964         1.306825
 H         1.548911         0.178857         2.144941
 H         4.109231         0.453494         2.114118
 H         5.187152         0.737648        -0.211169
 H         3.164356         2.541722        -0.625125
 H         3.624215         1.481736        -2.032529
 H         4.210992        -1.585424         0.375014
