19
Iteration:   368charge 0 multiplicity 1
 C         0.052390        -0.308729         0.076807
 C         1.484614         0.095478        -0.016267
 C         1.890865         0.710897         1.301533
 C         3.439205         0.479039         1.236097
 C         4.003437         0.474313        -0.165790
 C         3.192034         1.392089        -1.041522
 O         1.797570         1.011712        -1.173378
 C         3.533569        -0.748419         0.271289
 O         2.243512        -1.061194        -0.133073
 H        -0.000901        -1.114784         0.817338
 H        -0.707124         0.541935         0.368465
 H        -0.412884        -0.600574        -0.939802
 H         1.555005         1.784331         1.407453
 H         1.511034         0.121772         2.196516
 H         4.129887         0.689793         2.040199
 H         5.085902         0.703296        -0.157535
 H         3.220072         2.382010        -0.538437
 H         3.495744         1.379608        -2.109125
 H         4.120514        -1.608092         0.410602
