19
Iteration:  1535charge 0 multiplicity 1
 C        -0.027918        -0.333714        -0.064815
 C         1.440566         0.088860         0.057616
 C         1.997743         0.685077         1.467933
 C         3.506687         0.442244         1.233024
 C         4.030463         0.633974        -0.093732
 C         3.138401         1.248312        -1.242597
 O         1.705822         1.092909        -1.006387
 C         3.549158        -0.745784         0.230059
 O         2.269813        -1.036925        -0.172583
 H        -0.190643        -1.091837         0.769832
 H        -0.594615         0.587826         0.070497
 H        -0.101263        -0.689368        -1.114692
 H         1.754653         1.766884         1.438970
 H         1.463310         0.152373         2.249272
 H         4.148747         0.306526         2.115736
 H         5.124051         0.851953        -0.246983
 H         3.208524         2.376935        -1.289205
 H         3.582896         0.831653        -2.127275
 H         4.175894        -1.585708         0.495616
