19
Iteration:  4434
 C        -0.029472        -0.292955        -0.106156
 C         1.449426         0.113316        -0.000107
 C         2.080109         0.654609         1.332039
 C         3.513313         0.336542         1.266818
 C         4.030257         0.650684        -0.062249
 C         3.136893         1.487285        -0.969769
 O         1.732570         0.946974        -1.074998
 C         3.521470        -0.755858         0.173529
 O         2.187467        -1.068615        -0.149639
 H        -0.377862        -1.058403         0.627687
 H        -0.620765         0.550996        -0.395293
 H         0.055044        -0.896991        -1.033732
 H         2.087330         1.766728         1.430254
 H         1.551041         0.290156         2.231426
 H         4.048501         0.314155         2.302879
 H         5.062025         0.907345        -0.159672
 H         3.200504         2.639634        -0.741832
 H         3.452229         1.385064        -1.989644
 H         4.198890        -1.653130         0.259086
