19
Iteration:   787
 C        -0.027657        -0.189558        -0.038006
 C         1.497889         0.005219         0.081981
 C         1.953348         0.685902         1.350297
 C         3.427493         0.452681         1.174156
 C         4.062100         0.567853        -0.248506
 C         3.145354         1.419505        -1.204061
 O         1.767936         1.003841        -1.001131
 C         3.540063        -0.802947         0.340206
 O         2.256202        -1.161004        -0.128460
 H        -0.370867        -0.779013         0.742080
 H        -0.463128         0.799777         0.034575
 H        -0.271799        -0.574498        -1.032410
 H         1.635130         1.853255         1.502839
 H         1.819816         0.259605         2.389614
 H         4.085688         0.643973         2.017923
 H         5.105925         0.927575        -0.088743
 H         3.287938         2.471561        -0.965646
 H         3.247343         1.427891        -2.301685
 H         4.160650        -1.565736         0.845429
