19
Iteration:  4010charge 0 multiplicity 1
 C        -0.068559        -0.217123        -0.150691
 C         1.461414         0.021330        -0.011223
 C         1.995999         0.602831         1.328924
 C         3.464381         0.357993         1.299743
 C         4.048109         0.626106        -0.098855
 C         3.146827         1.396224        -1.145107
 O         1.713319         1.140720        -0.930053
 C         3.571241        -0.781158         0.322114
 O         2.304027        -1.108763        -0.196321
 H        -0.379038        -0.964992         0.611722
 H        -0.618236         0.729897        -0.130229
 H        -0.252817        -0.583880        -1.145722
 H         1.779242         1.643114         1.354927
 H         1.389746         0.154275         2.130396
 H         4.051359         0.341205         2.249413
 H         5.146750         0.842285        -0.335277
 H         3.351298         2.435900        -0.990334
 H         3.356919         1.083932        -2.191580
 H         4.271174        -1.641010         0.481003
