19
Iteration:  1564
 C        -0.045529        -0.279114        -0.051620
 C         1.461218         0.162700         0.024973
 C         1.877628         0.511404         1.432502
 C         3.437843         0.550038         1.213879
 C         3.965548         0.611392        -0.223818
 C         3.143398         1.156910        -1.359663
 O         1.823878         1.204325        -0.833810
 C         3.575792        -0.719474         0.313340
 O         2.341315        -1.092614        -0.181859
 H        -0.105858        -1.095411         0.660158
 H        -0.733177         0.537593         0.346755
 H        -0.168984        -0.603704        -1.038165
 H         1.431111         1.580929         1.752605
 H         1.449789        -0.284966         2.090547
 H         4.141369         0.735725         2.120049
 H         5.082835         0.756716        -0.203888
 H         3.388252         2.194940        -1.466450
 H         3.424641         0.593824        -2.320725
 H         4.264693        -1.493756         0.663543
