19
Iteration:  2332
 C         0.022817        -0.352704        -0.084164
 C         1.406879         0.220289         0.055323
 C         2.009156         0.720418         1.445344
 C         3.490229         0.388667         1.294388
 C         3.979693         0.602090        -0.161462
 C         3.150257         1.255600        -1.195114
 O         1.760472         1.109422        -1.008400
 C         3.498520        -0.779119         0.212586
 O         2.238967        -1.063363        -0.130465
 H         0.083296        -1.309901         0.443854
 H        -0.792415         0.283292         0.155943
 H         0.053449        -0.490449        -1.099796
 H         1.765789         1.750072         1.661102
 H         1.580559         0.103774         2.261611
 H         4.329434         0.470038         2.032508
 H         5.021777         0.846551        -0.332735
 H         3.402078         2.329866        -1.258788
 H         3.490323         0.911798        -2.250174
 H         4.183486        -1.662499         0.356963
