19
Iteration:  2110
 C        -0.003644        -0.280754        -0.035931
 C         1.465147         0.177833         0.065692
 C         2.044492         0.745552         1.417166
 C         3.527054         0.333706         1.271059
 C         3.929393         0.651891        -0.142352
 C         3.103245         1.381730        -1.176375
 O         1.799050         0.960683        -1.096841
 C         3.541897        -0.735787         0.198395
 O         2.195113        -1.138307        -0.081142
 H        -0.181332        -1.218613         0.406358
 H        -0.675983         0.395428         0.499824
 H        -0.149980        -0.395018        -1.121783
 H         2.092937         1.890138         1.360969
 H         1.471982         0.381295         2.287971
 H         4.178142         0.477895         2.093766
 H         5.039256         0.639128        -0.268806
 H         3.016453         2.482039        -0.951722
 H         3.582245         1.143511        -2.212548
 H         4.231626        -1.621454         0.130948
