19
Iteration:    20
 C         0.016792        -0.380960         0.034190
 C         1.419542         0.144559        -0.009295
 C         1.968051         0.584639         1.473960
 C         3.460310         0.423377         1.305723
 C         4.102052         0.582499        -0.143566
 C         3.237728         1.392783        -1.321128
 O         1.762556         1.106665        -1.206173
 C         3.461851        -0.735354         0.406758
 O         2.199496        -1.009835        -0.124611
 H         0.051740        -1.067071         0.769527
 H        -0.615673         0.438409         0.298472
 H        -0.343441        -0.771396        -0.878314
 H         1.531268         1.647067         1.795754
 H         1.668806        -0.258120         2.060152
 H         4.118126         0.302353         2.129590
 H         5.121307         0.732702        -0.362663
 H         3.353423         2.450234        -1.280076
 H         3.501326         1.046107        -2.386365
 H         4.028169        -1.572928         0.729000
