19
Iteration:   141
 C         0.042488        -0.291114         0.058855
 C         1.452044         0.093488         0.010730
 C         1.991284         0.777361         1.204317
 C         3.435525         0.326443         1.275748
 C         4.075625         0.582774        -0.090258
 C         3.077164         1.327703        -1.031113
 O         1.699222         0.999504        -1.076151
 C         3.608875        -0.764635         0.256094
 O         2.270740        -1.031184        -0.186520
 H        -0.196971        -0.855880         0.895465
 H        -0.530808         0.631109        -0.019148
 H        -0.293481        -0.826171        -0.827143
 H         1.860066         1.954292         0.924729
 H         1.483802         0.401503         2.078212
 H         3.942562         0.384413         2.271407
 H         5.115474         0.945919        -0.258478
 H         3.104261         2.377578        -0.776164
 H         3.410308         1.216194        -2.124772
 H         4.195535        -1.724060         0.371797
