19
Iteration:  3374
 C         0.046078        -0.373564        -0.172709
 C         1.402507         0.126550        -0.009293
 C         1.994468         0.612985         1.412194
 C         3.409453         0.347636         1.279747
 C         4.056083         0.694327        -0.050656
 C         3.138374         1.190233        -1.201005
 O         1.727949         1.270863        -0.819642
 C         3.586409        -0.797655         0.252131
 O         2.254429        -0.985777        -0.295958
 H        -0.199008        -0.853393         0.864284
 H        -0.560684         0.534259        -0.351383
 H        -0.120503        -1.019455        -1.007425
 H         1.637409         1.618599         1.588497
 H         1.553077         0.051122         2.294456
 H         4.060420         0.338881         2.139502
 H         5.057771         0.797776        -0.122560
 H         3.533756         2.191268        -1.476578
 H         3.333833         0.476097        -2.028735
 H         4.189036        -1.661415         0.374290
