19
Iteration:   238
 C         0.054685        -0.266047        -0.097922
 C         1.507483         0.100400         0.040629
 C         1.977580         0.740418         1.309701
 C         3.473998         0.362888         1.328354
 C         4.085161         0.640350        -0.114578
 C         3.100803         1.226224        -1.122364
 O         1.633409         1.043201        -0.989539
 C         3.564795        -0.735198         0.264115
 O         2.276874        -1.059369        -0.162997
 H        -0.429034        -1.057487         0.487130
 H        -0.630502         0.672268         0.111616
 H        -0.172151        -0.593746        -1.195735
 H         1.804072         1.861035         1.338277
 H         1.591384         0.229539         2.147940
 H         3.990451         0.533175         2.319442
 H         5.170983         0.854731        -0.297817
 H         3.234532         2.371640        -1.278894
 H         3.297283         0.829176        -2.137900
 H         4.209894        -1.644420         0.204486
