19
Iteration:  1820
 C        -0.048797        -0.211077        -0.093299
 C         1.473536         0.041461         0.074550
 C         1.972460         0.634309         1.411606
 C         3.450131         0.506748         1.294392
 C         4.061209         0.600147        -0.287552
 C         3.110649         1.317613        -1.268156
 O         1.755397         1.084405        -0.879508
 C         3.615663        -0.707727         0.285560
 O         2.250899        -1.200019        -0.166177
 H        -0.463424        -0.536241         0.811011
 H        -0.565589         0.752101        -0.335804
 H        -0.305295        -0.809081        -0.992138
 H         1.535360         1.611661         1.662379
 H         1.727562         0.011025         2.383908
 H         4.117135         0.570646         2.230049
 H         5.157717         0.697000        -0.470955
 H         3.435850         2.383732        -1.216175
 H         3.161729         1.095559        -2.389063
 H         4.286775        -1.481770         0.593247
