19
Iteration:  2079charge 0 multiplicity 1
 C        -0.003020        -0.284233        -0.012529
 C         1.463105         0.126125         0.031120
 C         2.073166         0.784076         1.284509
 C         3.536562         0.374846         1.198372
 C         4.096838         0.573351        -0.183111
 C         3.061167         1.472334        -1.001855
 O         1.768730         0.918277        -1.181987
 C         3.513697        -0.766342         0.253954
 O         2.156244        -1.145678        -0.023201
 H        -0.163886        -1.246142         0.439023
 H        -0.629582         0.522341         0.492338
 H        -0.278617        -0.323786        -1.064432
 H         2.028896         1.891384         1.296293
 H         1.619587         0.468440         2.191057
 H         4.042737         0.315697         2.118084
 H         5.166102         0.636429        -0.515759
 H         2.705927         2.354394        -0.484299
 H         3.385963         1.906200        -1.946597
 H         4.230543        -1.631808         0.455117
