19
Iteration:  4559
 C        -0.009027        -0.393308        -0.148938
 C         1.466153         0.073610         0.006154
 C         1.897422         0.628455         1.454454
 C         3.379363         0.459681         1.208206
 C         3.993074         0.567768        -0.192419
 C         3.145105         1.208318        -1.169449
 O         1.829271         1.268247        -0.752963
 C         3.585594        -0.791447         0.311600
 O         2.281056        -0.993501        -0.329786
 H        -0.263636        -0.972475         0.680164
 H        -0.549271         0.556624        -0.022839
 H        -0.149514        -0.948249        -1.104518
 H         1.692471         1.708263         1.476597
 H         1.532780         0.064117         2.291831
 H         4.095627         0.390512         2.019331
 H         5.048327         1.085211        -0.128668
 H         3.464455         2.265230        -1.174686
 H         3.361331         0.678499        -2.133531
 H         4.315049        -1.624594         0.335396
