19
Iteration:  2133charge 0 multiplicity 1
 C        -0.057834        -0.215350        -0.004173
 C         1.461359         0.057126         0.035601
 C         1.925005         0.624985         1.337174
 C         3.496518         0.519253         1.168954
 C         4.092385         0.548139        -0.207460
 C         3.184072         1.296644        -1.178933
 O         1.695672         1.035027        -0.912379
 C         3.580897        -0.729324         0.338997
 O         2.291257        -1.084800        -0.212060
 H        -0.545952        -0.892802         0.667373
 H        -0.383351         0.792559         0.371691
 H        -0.322787        -0.389252        -0.998963
 H         1.437453         1.635065         1.413506
 H         1.650550        -0.021385         2.159649
 H         4.126381         0.506668         2.001802
 H         5.158836         0.927864        -0.268789
 H         3.128564         2.391517        -1.137361
 H         3.358951         0.849923        -2.217484
 H         4.219989        -1.597355         0.664513
