19
Iteration:  1643
 C        -0.013284        -0.284250         0.005022
 C         1.484174         0.117665        -0.030408
 C         2.027289         0.661777         1.237953
 C         3.458318         0.426468         1.238270
 C         4.023668         0.565830        -0.234535
 C         3.145336         1.418690        -1.105308
 O         1.747111         1.063425        -1.020815
 C         3.520893        -0.772877         0.303254
 O         2.235476        -1.094064        -0.065172
 H        -0.062325        -0.915538         0.937393
 H        -0.732210         0.487870         0.027004
 H        -0.144462        -1.074829        -0.773956
 H         1.502246         1.670999         1.378813
 H         1.768403        -0.022114         2.076424
 H         3.808847         0.559960         2.217929
 H         5.103565         0.638560        -0.313199
 H         3.287669         2.490652        -0.851445
 H         3.576456         1.280651        -2.136242
 H         4.218455        -1.596402         0.387439
