19
Iteration:  3114charge 0 multiplicity 1
 C         0.004643        -0.186661        -0.146194
 C         1.444868         0.131081         0.016255
 C         1.993050         0.533848         1.476518
 C         3.466785         0.346555         1.335602
 C         3.960470         0.663729        -0.066516
 C         3.130073         1.382420        -1.200876
 O         1.801575         1.010224        -1.029454
 C         3.569837        -0.721555         0.253337
 O         2.238634        -1.082171        -0.185652
 H        -0.286676        -1.126922         0.357707
 H        -0.568054         0.626829         0.228290
 H        -0.194868        -0.373175        -1.140818
 H         1.617123         1.437001         1.828190
 H         1.463405        -0.208865         2.101542
 H         4.230215         0.726390         2.047377
 H         5.044661         0.817071        -0.184784
 H         3.222715         2.506405        -1.293795
 H         3.411396         1.057940        -2.186254
 H         4.385620        -1.479194         0.217015
