19
Iteration:  1514
 C        -0.038831        -0.264567        -0.083481
 C         1.445480         0.134667         0.039106
 C         2.058493         0.777688         1.275311
 C         3.535891         0.283096         1.327936
 C         4.006175         0.602438        -0.161354
 C         3.017183         1.410970        -1.090115
 O         1.671571         0.988793        -1.043563
 C         3.620735        -0.747053         0.329195
 O         2.280350        -1.168915        -0.166279
 H        -0.226999        -0.821704         0.898935
 H        -0.525893         0.702198        -0.028887
 H        -0.089181        -0.793504        -1.080324
 H         2.165264         1.851976         1.209828
 H         1.529841         0.479939         2.189155
 H         3.948180         0.629542         2.282831
 H         5.092307         0.876840        -0.174036
 H         3.207300         2.548127        -0.983066
 H         3.328369         1.114161        -2.134776
 H         4.399314        -1.456861         0.086949
