19
Iteration:  2464charge 0 multiplicity 1
 C         0.030846        -0.330358        -0.000815
 C         1.483804         0.147782         0.018078
 C         2.008411         0.836761         1.275449
 C         3.413589         0.364788         1.216380
 C         4.024474         0.512266        -0.180879
 C         3.166981         1.515943        -0.961927
 O         1.844732         0.956552        -1.095841
 C         3.473913        -0.782188         0.238705
 O         2.177898        -1.164822        -0.158044
 H        -0.087427        -0.779230         0.940210
 H        -0.734944         0.398434         0.013537
 H        -0.113136        -1.113857        -0.786785
 H         1.734070         1.901344         1.170037
 H         1.445854         0.423953         2.126308
 H         4.120800         0.521009         1.993423
 H         5.089392         0.778433        -0.324160
 H         3.014121         2.280581        -0.264890
 H         3.542826         1.931653        -1.901252
 H         4.208219        -1.572138         0.375930
