19
Iteration:  2890charge 0 multiplicity 1
 C        -0.026642        -0.191542        -0.120312
 C         1.484074         0.172338         0.069751
 C         2.021102         0.648613         1.448045
 C         3.497247         0.298719         1.297919
 C         3.996521         0.659068        -0.139116
 C         3.107556         1.560647        -1.030221
 O         1.820820         0.864028        -1.226598
 C         3.484301        -0.746988         0.225667
 O         2.234862        -1.170331        -0.096966
 H        -0.360508        -1.057054         0.570889
 H        -0.701724         0.615034         0.096851
 H        -0.306532        -0.489050        -1.102278
 H         1.848708         1.671478         1.711495
 H         1.668155        -0.047425         2.152326
 H         4.121091         0.562303         2.127259
 H         5.082746         0.758817        -0.308267
 H         3.151291         2.579362        -0.607532
 H         3.501891         1.702747        -2.065197
 H         4.141147        -1.588874         0.124264
