19
Iteration:  2965charge 0 multiplicity 1
 C         0.024349        -0.275264        -0.095228
 C         1.435558         0.219990         0.057780
 C         1.852396         0.505071         1.454325
 C         3.442179         0.403913         1.269020
 C         4.059963         0.672215        -0.031717
 C         3.185988         1.122047        -1.299157
 O         1.755669         1.155497        -0.899889
 C         3.575744        -0.681431         0.281576
 O         2.248760        -0.959403        -0.302012
 H        -0.204488        -1.221780         0.532648
 H        -0.770002         0.418836         0.085503
 H         0.072790        -0.494323        -1.125508
 H         1.646572         1.424792         1.920198
 H         1.761706        -0.311540         2.130386
 H         4.136551         0.374791         2.120816
 H         5.168945         0.804967        -0.153432
 H         3.419965         2.102765        -1.686791
 H         3.211946         0.217028        -1.881886
 H         4.372624        -1.407599         0.198619
