19
Iteration:  4778charge 0 multiplicity 1
 C        -0.012271        -0.308465        -0.189027
 C         1.412222         0.137940         0.073480
 C         1.926018         0.527884         1.396294
 C         3.466181         0.404940         1.260712
 C         4.030025         0.586057        -0.176301
 C         3.106037         1.223326        -1.186469
 O         1.745699         1.303706        -0.788443
 C         3.612227        -0.743015         0.288630
 O         2.316830        -1.087193        -0.273914
 H        -0.434168        -0.842653         0.605044
 H        -0.476765         0.656815        -0.319226
 H        -0.128828        -0.778108        -1.231365
 H         1.754317         1.546908         1.706420
 H         1.539785        -0.062440         2.249231
 H         4.101106         0.460637         2.169041
 H         5.009218         0.833389        -0.194610
 H         3.354730         2.329142        -1.434613
 H         3.213261         0.610021        -2.082845
 H         4.387594        -1.526987         0.475578
