19
Iteration:   951charge 0 multiplicity 1
 C         0.062658        -0.287102        -0.008555
 C         1.481564         0.022307         0.042202
 C         1.910914         0.650669         1.347915
 C         3.454216         0.466979         1.232143
 C         4.013127         0.575639        -0.191561
 C         3.132686         1.182268        -1.256681
 O         1.754102         1.188909        -0.856942
 C         3.541564        -0.746002         0.308689
 O         2.274846        -1.017992        -0.219891
 H        -0.226523        -1.064293         0.629854
 H        -0.642434         0.597007         0.070369
 H        -0.106003        -0.630862        -1.013108
 H         1.510882         1.697970         1.325131
 H         1.467827         0.185209         2.212106
 H         4.052879         0.647021         2.141213
 H         5.054023         0.696417        -0.398646
 H         3.623799         2.198986        -1.348198
 H         3.276026         0.718153        -2.238375
 H         4.172061        -1.525176         0.710678
