19
Iteration:  4573
 C         0.093128        -0.383604        -0.112643
 C         1.440277         0.159177         0.080188
 C         1.912300         0.691778         1.438578
 C         3.388255         0.273841         1.293073
 C         4.059697         0.614603        -0.076075
 C         3.175661         1.230046        -1.231248
 O         1.725665         1.232450        -0.815641
 C         3.547682        -0.744156         0.230451
 O         2.298101        -0.987189        -0.380244
 H        -0.196569        -1.006189         0.736640
 H        -0.665682         0.384660        -0.262510
 H        -0.056495        -1.061925        -1.028549
 H         1.668901         1.698631         1.521794
 H         1.474984         0.150293         2.367891
 H         4.072670         0.541644         2.162431
 H         5.061534         0.685439        -0.055185
 H         3.412324         2.256614        -1.501583
 H         3.117729         0.619014        -2.155259
 H         4.133834        -1.652869         0.429504
