19
Iteration:  2572
 C         0.069585        -0.445708        -0.079754
 C         1.439731         0.225418         0.069098
 C         1.915106         0.648313         1.477958
 C         3.358827         0.376255         1.306097
 C         4.091321         0.567480        -0.147993
 C         3.178495         1.131026        -1.297778
 O         1.781284         1.216841        -0.855282
 C         3.512642        -0.749322         0.244236
 O         2.231844        -0.901574        -0.278667
 H         0.118238        -1.401652         0.364400
 H        -0.740066         0.211267         0.252319
 H        -0.120166        -0.560502        -1.226007
 H         1.923601         1.713042         1.731570
 H         1.356039        -0.005598         2.180146
 H         4.159929         0.492737         2.073153
 H         5.153545         0.989528        -0.079144
 H         3.463253         2.221109        -1.576483
 H         3.420507         0.572024        -2.221995
 H         4.068424        -1.676616         0.335356
