19
Iteration:  3781
 C        -0.044240        -0.175365        -0.234765
 C         1.454664         0.016945        -0.002996
 C         1.937262         0.560304         1.453178
 C         3.436003         0.456923         1.292457
 C         4.008114         0.666904        -0.095175
 C         3.108896         1.171384        -1.229956
 O         1.747739         1.210589        -0.846005
 C         3.680405        -0.733221         0.385688
 O         2.295787        -1.068909        -0.285243
 H        -0.335870        -1.250712         0.207673
 H        -0.608012         0.659195         0.217194
 H        -0.433596        -0.307908        -1.208036
 H         1.744743         1.641077         1.589772
 H         1.509753        -0.169532         2.218424
 H         4.260213         0.396263         2.004138
 H         5.064202         0.871941        -0.213364
 H         3.402227         2.296375        -1.413895
 H         3.326954         0.410131        -1.981548
 H         4.206696        -1.743368         0.410997
