19
Iteration:  3941
 C         0.000863        -0.193293        -0.166746
 C         1.481253         0.110133         0.031972
 C         1.916228         0.578017         1.357131
 C         3.409317         0.386927         1.269841
 C         3.938276         0.631076        -0.085321
 C         3.136618         1.168961        -1.174436
 O         1.738654         1.184827        -0.841156
 C         3.624470        -0.735042         0.309446
 O         2.352697        -1.069876        -0.290659
 H        -0.168544        -1.111707         0.421869
 H        -0.586221         0.660711         0.200525
 H        -0.285340        -0.277413        -1.220244
 H         1.441914         1.586350         1.460341
 H         1.645961        -0.021191         2.244577
 H         4.073246         0.487197         2.105376
 H         5.076917         1.026958        -0.187937
 H         3.379629         2.199244        -1.312800
 H         3.441807         0.500304        -1.996521
 H         4.241558        -1.619003         0.441446
