19
Iteration:  3827
 C         0.008121        -0.256325        -0.070424
 C         1.479080         0.082913        -0.024581
 C         1.980733         0.617670         1.398638
 C         3.416970         0.329728         1.346918
 C         4.016664         0.640488        -0.127227
 C         3.179153         1.459046        -1.129472
 O         1.830842         1.069371        -1.093888
 C         3.510918        -0.750001         0.240401
 O         2.203367        -1.140257        -0.157461
 H        -0.234893        -1.009310         0.777575
 H        -0.430737         0.748397        -0.059444
 H        -0.286326        -0.736345        -1.011063
 H         1.632192         1.709788         1.456361
 H         1.537524        -0.026000         2.206125
 H         4.100054         0.320278         2.207833
 H         4.962142         0.927504        -0.151759
 H         2.981009         2.523326        -0.814057
 H         3.669006         1.329836        -2.072383
 H         4.229719        -1.512213         0.414226
