19
Iteration:  1190charge 0 multiplicity 1
 C         0.029223        -0.237281        -0.037874
 C         1.521678         0.106417         0.027766
 C         1.983127         0.699674         1.346270
 C         3.450447         0.412886         1.273938
 C         4.014690         0.648686        -0.160469
 C         3.122702         1.302765        -1.188067
 O         1.711270         1.070862        -0.913349
 C         3.471573        -0.777234         0.326480
 O         2.317232        -1.166607        -0.254589
 H        -0.222227        -1.001154         0.777862
 H        -0.608059         0.678770        -0.081348
 H        -0.056662        -0.680289        -1.044386
 H         1.759521         1.746305         1.322995
 H         1.413812         0.270225         2.278474
 H         4.119139         0.547006         2.117509
 H         5.065143         0.808111        -0.401108
 H         3.335457         2.373777        -1.080134
 H         3.223977         1.092804        -2.242272
 H         4.198700        -1.551720         0.532409
