19
Iteration:  1949charge 0 multiplicity 1
 C         0.028807        -0.234347        -0.165767
 C         1.475894         0.141350         0.169771
 C         1.948317         0.589684         1.518452
 C         3.465010         0.443388         1.233575
 C         4.029936         0.646950        -0.234033
 C         3.119522         1.211838        -1.272555
 O         1.743844         1.115730        -0.937256
 C         3.550925        -0.747637         0.231547
 O         2.264809        -1.053486        -0.134139
 H        -0.324403        -1.034848         0.429482
 H        -0.720130         0.612072        -0.003228
 H        -0.105858        -0.590849        -1.223214
 H         1.699472         1.606735         1.817394
 H         1.757669        -0.083778         2.311955
 H         4.156099         0.451050         2.118626
 H         5.137117         0.738326        -0.336343
 H         3.264596         2.269649        -1.485504
 H         3.145507         0.603800        -2.228655
 H         4.236232        -1.548689         0.522703
