19
Iteration:  1681
 C        -0.045425        -0.145686        -0.008825
 C         1.441291         0.000491         0.046440
 C         2.120723         0.770668         1.271039
 C         3.519826         0.311017         1.270086
 C         3.985374         0.672662        -0.081219
 C         3.022397         1.481846        -0.999887
 O         1.801572         0.766201        -1.177048
 C         3.564479        -0.684191         0.235364
 O         2.237179        -1.106184        -0.123692
 H        -0.468574        -0.767456         0.778335
 H        -0.732859         0.816365        -0.057966
 H        -0.204926        -0.765249        -0.946367
 H         2.208412         1.835665         1.343746
 H         1.582706         0.463438         2.176023
 H         4.128196         0.244768         2.262829
 H         5.058174         0.741129        -0.382562
 H         2.841849         2.552306        -0.636731
 H         3.273822         1.601667        -2.040391
 H         4.197903        -1.551610         0.063832
