19
Iteration:  4197charge 0 multiplicity 1
 C        -0.019367        -0.315079        -0.203230
 C         1.471841         0.176846         0.023059
 C         1.936593         0.584371         1.424019
 C         3.442722         0.367293         1.346150
 C         4.043919         0.641798        -0.107954
 C         3.144828         1.259091        -1.190906
 O         1.743628         1.173386        -0.969609
 C         3.599994        -0.731835         0.292049
 O         2.245218        -1.055175        -0.147096
 H        -0.277334        -1.089537         0.460202
 H        -0.717414         0.480956        -0.276569
 H        -0.009208        -0.770476        -1.235243
 H         1.652905         1.635286         1.667970
 H         1.475606        -0.070295         2.116912
 H         4.143934         0.330785         2.195156
 H         5.073777         0.672822        -0.322116
 H         3.510623         2.395168        -1.235430
 H         3.282560         0.804582        -2.166745
 H         4.400005        -1.435071         0.220490
