19
Iteration:  3110charge 0 multiplicity 1
 C         0.009591        -0.156125        -0.114990
 C         1.411727         0.106608        -0.028812
 C         1.995852         0.549437         1.463538
 C         3.452143         0.347958         1.315522
 C         3.985556         0.684436        -0.080928
 C         3.137867         1.374187        -1.139975
 O         1.800181         0.994870        -1.048417
 C         3.580213        -0.726099         0.237777
 O         2.279995        -1.096360        -0.166481
 H        -0.389666        -1.070656         0.317939
 H        -0.661400         0.672359         0.308619
 H        -0.353201        -0.456026        -1.214722
 H         1.495457         1.518776         1.895679
 H         1.574437        -0.169522         2.154628
 H         4.127232         0.672092         2.067021
 H         5.009139         0.840185        -0.204911
 H         3.272582         2.518913        -1.131167
 H         3.336097         1.121430        -2.227935
 H         4.242046        -1.564326         0.196605
