19
Iteration:  1818
 C        -0.078475        -0.216197        -0.086287
 C         1.485467         0.050071         0.059104
 C         1.960811         0.605002         1.412959
 C         3.460911         0.513357         1.283482
 C         4.079760         0.588878        -0.258828
 C         3.093006         1.308026        -1.284849
 O         1.765609         1.095732        -0.875272
 C         3.622056        -0.707045         0.297871
 O         2.243576        -1.175646        -0.174868
 H        -0.400382        -0.568361         0.844476
 H        -0.562605         0.693744        -0.326298
 H        -0.377662        -0.816388        -1.007742
 H         1.521472         1.613548         1.654263
 H         1.790841         0.036365         2.343801
 H         4.115817         0.591215         2.232897
 H         5.154837         0.730509        -0.477441
 H         3.468198         2.329794        -1.218240
 H         3.131988         1.054312        -2.424663
 H         4.334278        -1.467496         0.650429
