19
Iteration:  3745
 C         0.048667        -0.399242        -0.145020
 C         1.464045         0.168901        -0.017380
 C         1.882866         0.620520         1.481565
 C         3.435844         0.365280         1.270168
 C         4.052894         0.614402        -0.114903
 C         3.190578         1.198429        -1.216263
 O         1.789265         1.236982        -0.879464
 C         3.544719        -0.743042         0.300353
 O         2.199165        -0.957668        -0.257104
 H         0.026765        -1.160369         0.526619
 H        -0.741109         0.276850         0.159567
 H         0.035840        -0.719542        -1.224148
 H         1.630068         1.601209         1.724188
 H         1.381973         0.044338         2.255232
 H         4.067250         0.172593         2.132527
 H         5.243929         0.777980        -0.243281
 H         3.320440         2.196016        -1.601296
 H         3.408539         0.658604        -2.166312
 H         4.179300        -1.577058         0.470787
