19
Iteration:  3260charge 0 multiplicity 1
 C        -0.004743        -0.314567        -0.074561
 C         1.469071         0.101460        -0.058549
 C         2.000377         0.755423         1.321254
 C         3.522916         0.298435         1.253770
 C         4.047846         0.573848        -0.144862
 C         3.138268         1.599828        -0.916696
 O         1.784957         0.991822        -1.160902
 C         3.516634        -0.800456         0.270472
 O         2.208387        -1.156983        -0.105611
 H        -0.087540        -1.147725         0.538160
 H        -0.625241         0.515621         0.282641
 H        -0.525301        -0.474588        -1.044809
 H         1.641546         1.836118         1.224124
 H         1.499178         0.330978         2.198991
 H         4.112696         0.350416         2.120471
 H         5.198664         0.581035        -0.155387
 H         2.790727         2.531748        -0.388551
 H         3.507311         1.860797        -1.910111
 H         4.119832        -1.690554         0.131076
