19
Iteration:  4194charge 0 multiplicity 1
 C        -0.033122        -0.300370        -0.220313
 C         1.470218         0.153218        -0.015793
 C         1.946060         0.589471         1.424439
 C         3.469179         0.364843         1.341216
 C         4.061858         0.654249        -0.102671
 C         3.132619         1.232728        -1.197104
 O         1.725064         1.160129        -0.922879
 C         3.601677        -0.710610         0.295192
 O         2.259123        -1.038333        -0.155607
 H        -0.300923        -1.040333         0.471100
 H        -0.784793         0.500595        -0.251337
 H         0.028394        -0.638380        -1.232348
 H         1.625694         1.585798         1.566688
 H         1.440076        -0.085481         2.138081
 H         4.041011         0.333960         2.274955
 H         5.074918         0.727032        -0.327600
 H         3.513502         2.305801        -1.271045
 H         3.272933         0.715248        -2.131843
 H         4.365440        -1.519379         0.275123
