19
Iteration:  3720charge 0 multiplicity 1
 C        -0.055005        -0.279835        -0.109851
 C         1.464597         0.074228         0.016306
 C         1.979655         0.635697         1.369461
 C         3.443721         0.395021         1.291170
 C         4.012423         0.586041        -0.079874
 C         3.202880         1.323341        -1.135519
 O         1.729645         1.151736        -0.971886
 C         3.595795        -0.767503         0.275296
 O         2.251702        -1.062242        -0.253543
 H        -0.438898        -0.940142         0.696599
 H        -0.731082         0.565266        -0.134757
 H         0.032838        -0.817303        -1.034729
 H         1.730510         1.712816         1.667256
 H         1.484203         0.050810         2.101907
 H         4.092681         0.443298         2.198852
 H         5.041851         0.753235        -0.084593
 H         3.274082         2.363254        -1.044006
 H         3.587484         1.101089        -2.139874
 H         4.300370        -1.637621         0.401906
