19
Iteration:  1064
 C         0.031983        -0.288582         0.021788
 C         1.479723         0.175119        -0.016721
 C         2.022573         0.744996         1.370264
 C         3.489403         0.339779         1.267452
 C         3.959501         0.609845        -0.238592
 C         3.113676         1.485487        -1.086200
 O         1.857017         0.950929        -1.201293
 C         3.488795        -0.771741         0.255868
 O         2.177888        -1.146572        -0.024489
 H         0.090175        -1.178163         0.660404
 H        -0.639464         0.400441         0.370901
 H        -0.246786        -0.665282        -0.971706
 H         1.855957         1.909623         1.413489
 H         1.478871         0.245017         2.218132
 H         3.949419         0.204095         2.236325
 H         5.040372         0.859942        -0.190019
 H         3.072616         2.608483        -0.713392
 H         3.570750         1.516993        -2.053205
 H         4.048043        -1.687813         0.296310
