19
Iteration:  1279charge 0 multiplicity 1
 C        -0.076767        -0.281622        -0.059800
 C         1.421099         0.077524        -0.044422
 C         2.022018         0.806006         1.319428
 C         3.530047         0.339018         1.230534
 C         4.071272         0.686383        -0.150986
 C         3.085676         1.438630        -1.031227
 O         1.769506         0.964893        -1.064593
 C         3.593345        -0.798220         0.307602
 O         2.241795        -1.160502        -0.133106
 H        -0.252989        -0.981981         0.812444
 H        -0.659632         0.581194         0.188258
 H        -0.534817        -0.720634        -1.012829
 H         1.878992         1.908031         1.183837
 H         1.582844         0.372708         2.240537
 H         4.098735         0.419214         2.177928
 H         5.146480         0.623536        -0.436359
 H         3.072543         2.511563        -0.569878
 H         3.473405         1.588218        -2.041824
 H         4.061750        -1.765113         0.311871
