19
Iteration:  1664charge 0 multiplicity 1
 C        -0.014801        -0.242290         0.036690
 C         1.478180         0.082925         0.054202
 C         1.967929         0.762765         1.348911
 C         3.472181         0.408943         1.261540
 C         4.033753         0.599081        -0.196061
 C         3.086429         1.491819        -1.026849
 O         1.781960         0.907911        -1.158430
 C         3.544080        -0.813537         0.251297
 O         2.244585        -1.179249        -0.180526
 H        -0.360063        -0.661654         1.016512
 H        -0.344381         0.744088        -0.013556
 H        -0.214177        -0.924965        -0.763044
 H         1.739611         1.913194         1.123491
 H         1.470407         0.473166         2.288422
 H         4.262658         0.475620         1.963380
 H         5.093624         0.839003        -0.316102
 H         3.051130         2.453742        -0.514791
 H         3.585558         1.742927        -2.024666
 H         4.281615        -1.578314         0.446676
