19
Iteration:  1424
 C        -0.003687        -0.237138        -0.076273
 C         1.432316         0.008697         0.133920
 C         1.957903         0.783907         1.306495
 C         3.500636         0.365155         1.267654
 C         4.043849         0.578705        -0.167191
 C         3.133073         1.382709        -1.152757
 O         1.687390         0.998024        -0.936603
 C         3.598645        -0.771803         0.311774
 O         2.303512        -1.093898        -0.251092
 H        -0.437832        -1.027632         0.540332
 H        -0.696739         0.635471         0.181122
 H        -0.169383        -0.553319        -1.086092
 H         1.598015         1.863129         1.237217
 H         1.567245         0.361416         2.196173
 H         4.263605         0.696159         1.981250
 H         5.068435         0.906466        -0.156501
 H         3.114885         2.524874        -1.174965
 H         3.415516         1.041699        -2.113753
 H         4.276181        -1.618053         0.464909
