19
Iteration:  4721
 C        -0.010415        -0.206406        -0.087334
 C         1.444288         0.047584        -0.003401
 C         1.897062         0.543341         1.358651
 C         3.479407         0.367957         1.270434
 C         4.054827         0.573451        -0.109257
 C         3.154565         1.389719        -1.178207
 O         1.705630         1.160598        -0.967680
 C         3.592311        -0.777646         0.322915
 O         2.319324        -1.062941        -0.232460
 H        -0.274517        -0.874159         0.758774
 H        -0.545668         0.719450         0.265447
 H        -0.521302        -0.767276        -0.956404
 H         1.589678         1.674147         1.475945
 H         1.625872        -0.118036         2.165823
 H         4.158344         0.307314         2.140218
 H         5.137061         0.833510        -0.029606
 H         3.203724         2.511329        -1.011782
 H         3.424168         1.128903        -2.224484
 H         4.266067        -1.604621         0.276966
