19
Iteration:  1041charge 0 multiplicity 1
 C        -0.066545        -0.265590         0.019994
 C         1.432058         0.098726        -0.016222
 C         1.998947         0.700379         1.261407
 C         3.528161         0.457708         1.213989
 C         4.111473         0.571015        -0.190465
 C         3.224189         1.477416        -1.011054
 O         1.723545         0.919851        -1.135700
 C         3.535097        -0.764338         0.284060
 O         2.189639        -1.104169        -0.064165
 H        -0.259461        -1.048668         0.795359
 H        -0.614733         0.588396         0.149948
 H        -0.307342        -0.695829        -0.942999
 H         1.680399         1.787823         1.545586
 H         1.674868         0.009503         2.048941
 H         4.002456         0.741471         2.153641
 H         5.225776         0.501521        -0.356512
 H         2.975265         2.517714        -0.596359
 H         3.607733         1.600269        -2.030192
 H         4.049307        -1.735236         0.233218
