19
Iteration:   912
 C        -0.007303        -0.245174        -0.141164
 C         1.494265         0.118803         0.130906
 C         2.010860         0.626681         1.434613
 C         3.489089         0.345536         1.323917
 C         4.020799         0.695533        -0.174564
 C         3.127825         1.201348        -1.229054
 O         1.699635         1.030102        -1.030776
 C         3.572688        -0.677524         0.263729
 O         2.241270        -1.003227        -0.109882
 H        -0.341434        -1.199511         0.436334
 H        -0.575853         0.577366         0.211816
 H        -0.118443        -0.280313        -1.266106
 H         1.738441         1.723022         1.552089
 H         1.603268         0.104408         2.335878
 H         4.259103         0.486669         2.066971
 H         5.091533         0.849644        -0.533734
 H         3.246371         2.259739        -1.412266
 H         3.325489         0.600828        -2.222383
 H         4.023009        -1.703503         0.336045
