19
Iteration:  3075
 C        -0.019035        -0.188771         0.002209
 C         1.514955        -0.005861        -0.047809
 C         1.978141         0.730051         1.256229
 C         3.451709         0.333067         1.297294
 C         4.000527         0.659343        -0.145435
 C         3.086136         1.546119        -0.937170
 O         1.814506         0.927034        -1.086959
 C         3.529381        -0.789645         0.293783
 O         2.266460        -1.192957        -0.233234
 H        -0.237744        -0.996763         0.754118
 H        -0.535263         0.783176         0.228948
 H        -0.339687        -0.406719        -1.103912
 H         1.871246         1.864689         1.082293
 H         1.615284         0.390565         2.236800
 H         3.952714         0.594308         2.245824
 H         5.153965         0.742301        -0.252931
 H         3.071012         2.510679        -0.377205
 H         3.417303         1.729222        -2.030712
 H         4.042360        -1.756240         0.251916
