19
Iteration:   176charge 0 multiplicity 1
 C        -0.064013        -0.251514        -0.024872
 C         1.451075         0.076938        -0.033104
 C         2.071530         0.737972         1.377211
 C         3.501692         0.414966         1.271852
 C         3.929321         0.638299        -0.125513
 C         3.096103         1.403300        -1.040105
 O         1.825136         0.933231        -1.157700
 C         3.555201        -0.778127         0.246885
 O         2.226105        -1.138466        -0.119203
 H        -0.145548        -1.003171         0.737752
 H        -0.555739         0.592060         0.289743
 H        -0.347368        -0.585085        -0.966746
 H         1.697121         1.845135         1.410887
 H         1.555429         0.308337         2.303199
 H         4.272126         0.692667         2.025905
 H         5.003304         0.949434        -0.283085
 H         3.170105         2.441422        -0.731299
 H         3.588345         1.369696        -2.084425
 H         4.256061        -1.612511         0.203109
