19
Iteration:  3200
 C        -0.017991        -0.207143        -0.137297
 C         1.489379         0.166338         0.046073
 C         1.943941         0.473955         1.435606
 C         3.447093         0.316401         1.324487
 C         3.979927         0.690544        -0.066162
 C         3.121031         1.259295        -1.223706
 O         1.771736         1.148400        -1.015979
 C         3.563305        -0.713526         0.233617
 O         2.273832        -1.054550        -0.181254
 H        -0.310050        -0.837662         0.796632
 H        -0.748478         0.601492        -0.186094
 H         0.020829        -0.876069        -1.003570
 H         1.628223         1.449016         1.682546
 H         1.657772        -0.255827         2.207118
 H         4.225210         0.499287         2.132365
 H         5.005688         0.913575        -0.003461
 H         3.270558         2.432779        -1.241583
 H         3.554671         0.787959        -2.153443
 H         4.448918        -1.413901         0.121686
