19
Iteration:  2090
 C         0.027056        -0.293039        -0.051980
 C         1.456015         0.111297        -0.022244
 C         2.135857         0.822103         1.315375
 C         3.567688         0.270978         1.275475
 C         3.997396         0.648980        -0.182900
 C         3.079705         1.554493        -1.031948
 O         1.709369         0.885190        -1.214224
 C         3.499931        -0.797508         0.253440
 O         2.157572        -1.091084         0.036427
 H         0.029118        -1.271923         0.412622
 H        -0.710116         0.340900         0.552671
 H        -0.310218        -0.421563        -1.061371
 H         2.039361         1.923013         1.345258
 H         1.620927         0.370372         2.118812
 H         4.208692         0.296199         2.111394
 H         5.120360         0.649681        -0.280474
 H         3.213696         2.552342        -0.586530
 H         3.508433         1.467122        -2.011342
 H         4.044861        -1.797044         0.126643
