19
Iteration:  1129charge 0 multiplicity 1
 C         0.100874        -0.213415        -0.058008
 C         1.498876         0.095563         0.045273
 C         1.936727         0.527020         1.504598
 C         3.421162         0.555400         1.294978
 C         3.966734         0.613685        -0.132324
 C         3.191233         1.268485        -1.271651
 O         1.761857         1.085951        -1.026220
 C         3.516850        -0.748922         0.170616
 O         2.200423        -1.102040        -0.124132
 H        -0.191734        -0.811228         0.807063
 H        -0.450396         0.649724         0.010268
 H        -0.071753        -0.836493        -0.966214
 H         1.519661         1.582728         1.674727
 H         1.620702        -0.167770         2.239744
 H         4.244459         0.685584         2.003958
 H         5.031268         0.948350        -0.202118
 H         3.370051         2.386589        -1.232611
 H         3.587051         0.856375        -2.223588
 H         4.155739        -1.582134         0.201494
