19
Iteration:  3419
 C         0.034922        -0.209333        -0.143938
 C         1.504148         0.103287         0.032136
 C         1.958389         0.571458         1.457349
 C         3.443615         0.391781         1.235210
 C         4.040987         0.653800        -0.187715
 C         3.149466         1.388192        -1.071449
 O         1.802797         1.007321        -1.004070
 C         3.529149        -0.729475         0.223028
 O         2.178283        -1.087032        -0.160929
 H        -0.164633        -1.139138         0.441277
 H        -0.683539         0.615440         0.089272
 H        -0.069303        -0.458698        -1.224219
 H         1.592327         1.530468         1.681738
 H         1.501579        -0.086936         2.254685
 H         4.064228         0.480007         2.111497
 H         5.043581         0.970035        -0.019457
 H         3.121522         2.498828        -0.929586
 H         3.649442         1.135776        -2.049699
 H         4.125147        -1.680854         0.295289
