19
Iteration:   917
 C        -0.053519        -0.254722        -0.124281
 C         1.455923         0.153685         0.146850
 C         2.016773         0.656670         1.445927
 C         3.500102         0.328960         1.309119
 C         4.043809         0.700749        -0.118662
 C         3.145025         1.196543        -1.281935
 O         1.666649         1.067135        -1.030806
 C         3.600257        -0.698899         0.244531
 O         2.268102        -1.059716        -0.114004
 H        -0.312824        -1.206489         0.263610
 H        -0.762253         0.611740         0.132195
 H         0.049987        -0.334119        -1.217410
 H         1.813528         1.711949         1.481429
 H         1.610961         0.131792         2.292956
 H         4.217312         0.424690         2.137188
 H         5.023179         0.908675        -0.470232
 H         3.378733         2.277320        -1.466001
 H         3.186973         0.587295        -2.165911
 H         4.141837        -1.597583         0.425839
