19
Iteration:  1631
 C        -0.004686        -0.363078        -0.029591
 C         1.414000         0.125869         0.069980
 C         1.968591         0.630723         1.379647
 C         3.542183         0.452937         1.257028
 C         4.051259         0.596241        -0.134667
 C         3.182506         1.376423        -1.222130
 O         1.743244         1.124980        -1.059082
 C         3.547396        -0.746588         0.304224
 O         2.196681        -1.113070        -0.127255
 H        -0.331477        -0.984312         0.840368
 H        -0.661610         0.490522        -0.102679
 H        -0.111803        -0.826655        -0.993680
 H         1.735883         1.763540         1.532776
 H         1.461033         0.062827         2.169970
 H         4.313163         0.464107         2.014841
 H         5.113215         0.720083        -0.420680
 H         3.311444         2.461659        -1.140479
 H         3.365237         1.044562        -2.297705
 H         4.155070        -1.627697         0.435052
