19
Iteration:  3835
 C         0.019414        -0.283375        -0.048683
 C         1.466941         0.099797        -0.046860
 C         1.974797         0.658974         1.321678
 C         3.453690         0.326456         1.285427
 C         4.040217         0.631913        -0.090178
 C         3.180088         1.506563        -1.022931
 O         1.757438         1.028044        -1.112598
 C         3.510714        -0.758227         0.287473
 O         2.230477        -1.128712        -0.164669
 H        -0.433020        -0.860530         0.835845
 H        -0.613785         0.604579        -0.014879
 H        -0.173834        -0.809697        -0.929560
 H         1.840211         1.705332         1.377614
 H         1.375265         0.185011         2.119448
 H         4.078223         0.152076         2.146940
 H         5.147258         0.599312        -0.220760
 H         3.175795         2.649037        -0.856176
 H         3.714951         1.496059        -2.011218
 H         4.137344        -1.671264         0.301820
