19
Iteration:  2343charge 0 multiplicity 1
 C         0.122882        -0.324739        -0.136087
 C         1.513842         0.187816         0.117846
 C         1.983513         0.728703         1.477554
 C         3.503386         0.301975         1.312325
 C         3.934580         0.635534        -0.101970
 C         3.124127         1.234568        -1.303464
 O         1.682311         1.129588        -0.974302
 C         3.563111        -0.748022         0.275432
 O         2.207742        -1.029111        -0.224803
 H        -0.127694        -1.155861         0.562713
 H        -0.622729         0.402004         0.052363
 H        -0.010948        -0.751069        -1.051993
 H         1.883806         1.800367         1.536776
 H         1.462851         0.219372         2.311927
 H         4.242901         0.493349         2.120317
 H         5.003090         0.770938        -0.171179
 H         3.410859         2.272609        -1.477201
 H         3.237438         0.502068        -2.212296
 H         4.135628        -1.715451         0.364728
