19
Iteration:   344charge 0 multiplicity 1
 C        -0.044282        -0.280641        -0.150808
 C         1.445542         0.110673         0.036616
 C         2.030847         0.714352         1.392524
 C         3.509831         0.407897         1.218957
 C         4.018600         0.637660        -0.163779
 C         3.160315         1.437961        -1.172371
 O         1.785044         0.975790        -1.030264
 C         3.539147        -0.721632         0.326561
 O         2.196472        -1.176033        -0.058540
 H        -0.376465        -1.041431         0.532173
 H        -0.696535         0.632628        -0.070855
 H        -0.241862        -0.493958        -1.232429
 H         1.776369         1.738894         1.589918
 H         1.686737         0.045310         2.321988
 H         4.165776         0.432835         2.103728
 H         5.093498         0.770539        -0.316125
 H         3.158041         2.514523        -1.010162
 H         3.317309         1.046122        -2.264426
 H         4.298611        -1.494556         0.465803
