19
Iteration:  4076charge 0 multiplicity 1
 C        -0.076957        -0.227554        -0.051022
 C         1.472278         0.077258        -0.125494
 C         2.006434         0.706833         1.271835
 C         3.502460         0.388942         1.303777
 C         4.011431         0.593780        -0.103822
 C         3.127317         1.562237        -0.869741
 O         1.798724         0.989185        -1.176759
 C         3.578228        -0.797879         0.223489
 O         2.223887        -1.236191        -0.094230
 H        -0.410581        -0.762581         0.769635
 H        -0.695493         0.655126        -0.170446
 H        -0.297009        -0.698652        -1.007004
 H         1.901595         1.778581         1.264146
 H         1.582170         0.391722         2.204177
 H         4.154522         0.456637         2.204385
 H         5.054048         0.607084        -0.196439
 H         2.847833         2.404728        -0.375382
 H         3.575209         1.797339        -1.815512
 H         4.279342        -1.705206         0.211613
