19
Iteration:  3426
 C         0.021379        -0.192644        -0.110171
 C         1.448015         0.130052         0.028699
 C         1.981845         0.555439         1.430276
 C         3.462535         0.397084         1.280045
 C         4.027478         0.705861        -0.119598
 C         3.158081         1.416417        -1.078102
 O         1.814007         0.948971        -1.069267
 C         3.515850        -0.767563         0.198611
 O         2.194818        -1.106581        -0.128783
 H        -0.314756        -1.158914         0.371445
 H        -0.632061         0.637629         0.102594
 H        -0.054649        -0.301443        -1.165267
 H         1.545898         1.615975         1.629184
 H         1.559386        -0.196038         2.125776
 H         4.149810         0.343829         2.121329
 H         5.061608         0.971964        -0.256598
 H         3.204224         2.610627        -0.848445
 H         3.625607         1.293157        -2.057364
 H         4.136955        -1.608306         0.138256
