19
Iteration:   337
 C        -0.005509        -0.215138        -0.209663
 C         1.496445         0.101803         0.048458
 C         1.997995         0.716712         1.375864
 C         3.507174         0.372201         1.248510
 C         4.009079         0.673042        -0.213622
 C         3.102809         1.350240        -1.138989
 O         1.763313         0.960620        -0.973938
 C         3.524437        -0.673579         0.277968
 O         2.233380        -1.170260        -0.037234
 H        -0.478576        -0.998539         0.430783
 H        -0.705935         0.670089        -0.020632
 H        -0.127713        -0.659394        -1.251158
 H         1.898675         1.816445         1.640856
 H         1.741003         0.191810         2.224552
 H         4.214305         0.206845         2.050413
 H         5.097341         0.808231        -0.200066
 H         3.129387         2.484976        -1.185928
 H         3.338915         1.033589        -2.107118
 H         4.161707        -1.480520         0.487391
