19
Iteration:  3405
 C         0.021296        -0.292484        -0.191232
 C         1.428020         0.099511         0.053197
 C         1.928773         0.624325         1.418801
 C         3.408084         0.381542         1.255090
 C         4.023185         0.576391        -0.143048
 C         3.173464         1.378601        -1.191269
 O         1.752833         1.149943        -0.880569
 C         3.571235        -0.795081         0.299637
 O         2.291215        -1.080994        -0.230904
 H        -0.266123        -1.071083         0.592481
 H        -0.583088         0.595138         0.023167
 H        -0.206219        -0.654992        -1.168735
 H         1.697029         1.732120         1.550459
 H         1.619969        -0.005434         2.288808
 H         4.134799         0.476713         2.058011
 H         5.032469         0.644633        -0.264312
 H         3.541682         2.515351        -0.980459
 H         3.232827         1.201181        -2.269788
 H         4.247979        -1.582109         0.489222
