19
Iteration:  3476
 C         0.026379        -0.172316        -0.020654
 C         1.491786         0.022208        -0.018488
 C         2.017351         0.779326         1.256971
 C         3.396993         0.367857         1.273622
 C         4.062585         0.550750        -0.128696
 C         3.067296         1.531599        -0.890135
 O         1.788755         0.876589        -1.081258
 C         3.515678        -0.756115         0.244304
 O         2.254382        -1.153445        -0.246873
 H        -0.208267        -1.014425         0.576794
 H        -0.541908         0.733354         0.261352
 H        -0.315086        -0.466394        -1.077549
 H         1.744265         1.797002         1.132366
 H         1.520499         0.218104         2.033706
 H         3.960557         0.494492         2.215834
 H         5.273919         0.524572        -0.169918
 H         2.794974         2.635883        -0.360506
 H         3.722574         1.801474        -1.770495
 H         4.228149        -1.560091         0.345479
