19
Iteration:  4290
 C         0.026323        -0.166861        -0.091785
 C         1.476908         0.114339        -0.010666
 C         1.938515         0.562329         1.393649
 C         3.463748         0.437861         1.241975
 C         3.953944         0.656677        -0.109064
 C         3.164015         1.499072        -1.044652
 O         1.836043         0.886198        -1.105931
 C         3.545722        -0.689636         0.176615
 O         2.212310        -1.180076        -0.079631
 H        -0.181024        -0.968909         0.650412
 H        -0.549878         0.800110         0.143178
 H        -0.258160        -0.404934        -1.142338
 H         1.615161         1.537533         1.704753
 H         1.493118        -0.216765         2.098399
 H         4.142851         0.318096         2.035064
 H         5.010165         0.614482        -0.201918
 H         2.886390         2.519323        -0.589605
 H         3.735073         1.605086        -1.990093
 H         4.309172        -1.447931         0.132911
