19
Iteration:  1439
 C         0.026301        -0.191776        -0.067919
 C         1.547214         0.079410         0.032656
 C         2.009412         0.736097         1.390076
 C         3.443771         0.431997         1.286241
 C         3.950521         0.655204        -0.140194
 C         3.049361         1.365511        -1.091923
 O         1.732209         0.911222        -1.041041
 C         3.569635        -0.748814         0.206665
 O         2.280129        -1.169286        -0.152128
 H        -0.284279        -0.936903         0.729121
 H        -0.398521         0.788485         0.079023
 H        -0.162256        -0.473485        -1.126614
 H         1.943761         1.766805         1.189271
 H         1.525532         0.436116         2.352695
 H         4.060226         0.401840         2.209184
 H         5.050016         0.667793        -0.348228
 H         3.108731         2.407413        -0.796544
 H         3.355487         1.352588        -2.198658
 H         4.253599        -1.596444         0.162878
