19
Iteration:  3465
 C         0.028904        -0.125823        -0.024709
 C         1.501044         0.051747         0.010050
 C         1.922960         0.724145         1.236228
 C         3.480569         0.333581         1.228935
 C         3.985273         0.641897        -0.081018
 C         3.062784         1.490193        -0.890219
 O         1.801988         0.868846        -1.154006
 C         3.577129        -0.812480         0.252937
 O         2.274025        -1.164632        -0.219208
 H        -0.325466        -0.914636         0.583820
 H        -0.354133         0.812529         0.429130
 H        -0.319999        -0.171529        -1.107629
 H         1.733430         1.769437         1.248462
 H         1.436437         0.453102         2.159221
 H         4.048544         0.322700         2.179103
 H         5.174553         0.811007        -0.156630
 H         2.929702         2.416011        -0.127880
 H         3.313001         1.856804        -1.929664
 H         4.252987        -1.652084         0.442679
