19
Iteration:   189
 C        -0.015226        -0.231942        -0.023872
 C         1.462789         0.104954         0.046907
 C         1.935009         0.638326         1.305899
 C         3.481203         0.452047         1.198339
 C         4.060354         0.632716        -0.181819
 C         3.204451         1.473432        -1.091123
 O         1.791219         0.906907        -1.104435
 C         3.555857        -0.723999         0.191770
 O         2.188718        -1.122800         0.016117
 H        -0.300088        -1.138823         0.598173
 H        -0.713155         0.543704         0.265204
 H        -0.303267        -0.527434        -1.018846
 H         1.667984         1.665955         1.499220
 H         1.567573        -0.123155         2.117305
 H         4.057482         0.439362         2.092396
 H         5.145526         0.663696        -0.265252
 H         3.079986         2.534839        -0.814545
 H         3.525796         1.426645        -2.145477
 H         4.187547        -1.553331         0.279413
