19
Iteration:  3116
 C        -0.000254        -0.203275        -0.154733
 C         1.471131         0.140508         0.039880
 C         1.984656         0.523212         1.476465
 C         3.474620         0.350324         1.341850
 C         3.946746         0.660017        -0.070178
 C         3.131451         1.387676        -1.220447
 O         1.794250         1.018955        -1.021469
 C         3.566916        -0.722000         0.260375
 O         2.223537        -1.077826        -0.193273
 H        -0.225357        -1.139424         0.399065
 H        -0.553835         0.631789         0.197123
 H        -0.139345        -0.326103        -1.192520
 H         1.666378         1.487205         1.800620
 H         1.439609        -0.248845         2.099501
 H         4.251267         0.699826         2.062456
 H         5.098044         0.816418        -0.166707
 H         3.196736         2.460927        -1.323259
 H         3.479664         0.999010        -2.197102
 H         4.402258        -1.450486         0.228903
