19
Iteration:  1902
 C         0.048433        -0.181473         0.146210
 C         1.476551         0.103354        -0.053819
 C         1.942686         0.758340         1.254384
 C         3.370613         0.339936         1.256878
 C         4.033867         0.615687        -0.214355
 C         3.181749         1.460482        -1.096542
 O         1.750685         0.984500        -1.080779
 C         3.550240        -0.758092         0.277381
 O         2.284939        -1.242406        -0.139636
 H        -0.149788        -1.121028         0.763952
 H        -0.392169         0.678833         0.607466
 H        -0.510263        -0.369955        -0.852918
 H         1.717546         1.855713         1.108831
 H         1.410562         0.327860         2.085993
 H         4.106069         0.298192         2.088049
 H         5.101342         0.664553        -0.052170
 H         3.131995         2.530785        -0.732251
 H         3.288299         1.396465        -2.128167
 H         4.284655        -1.576086         0.337594
