19
Iteration:  3684charge 0 multiplicity 1
 C        -0.047026        -0.096398        -0.064435
 C         1.492093         0.061107        -0.017743
 C         1.996733         0.622278         1.354417
 C         3.488314         0.351238         1.268838
 C         3.949599         0.657149        -0.078538
 C         3.106030         1.541395        -0.989617
 O         1.842823         0.871137        -1.141398
 C         3.591638        -0.758351         0.223874
 O         2.210124        -1.206758        -0.145814
 H        -0.661679        -0.720165         0.762456
 H        -0.452833         0.892470        -0.347418
 H        -0.309357        -0.597836        -1.022366
 H         1.699217         1.746955         1.350326
 H         1.585381         0.044069         2.267490
 H         4.096279         0.433759         2.166910
 H         5.026017         0.810819        -0.154064
 H         3.072399         2.560660        -0.473480
 H         3.484498         1.732242        -2.009176
 H         4.492196        -1.462880         0.236709
