19
Iteration:  3812
 C         0.021236        -0.143291        -0.150117
 C         1.477915         0.096195         0.039014
 C         1.889730         0.535187         1.467406
 C         3.411452         0.395475         1.253266
 C         3.940083         0.683841        -0.105198
 C         3.199619         1.381621        -1.164982
 O         1.796158         1.007679        -1.006797
 C         3.603129        -0.733912         0.261264
 O         2.258392        -1.113055        -0.179766
 H        -0.309854        -0.919581         0.595759
 H        -0.650592         0.641064         0.181867
 H        -0.200971        -0.536841        -1.129083
 H         1.625427         1.505844         1.751123
 H         1.472775        -0.175588         2.194689
 H         4.102361         0.561355         2.072418
 H         5.117203         0.760721        -0.087032
 H         3.573186         2.466609        -1.194354
 H         3.459625         1.093554        -2.241663
 H         4.225254        -1.665899         0.181694
