19
Iteration:  2498charge 0 multiplicity 1
 C        -0.065906        -0.148047        -0.042029
 C         1.506082         0.087028        -0.006309
 C         1.994247         0.640047         1.368784
 C         3.499541         0.348632         1.370378
 C         4.023100         0.688871        -0.095940
 C         3.126314         1.420819        -1.131915
 O         1.751359         0.895797        -1.159703
 C         3.573878        -0.687735         0.256678
 O         2.225089        -1.161912        -0.142183
 H        -0.317034        -1.057562         0.381559
 H        -0.562558         0.703300         0.416159
 H        -0.503933        -0.084111        -1.084194
 H         1.707719         1.705000         1.558768
 H         1.631708         0.004542         2.172722
 H         4.227411         0.219944         2.228688
 H         5.170162         0.694875        -0.239783
 H         3.058908         2.422428        -0.847357
 H         3.557140         1.537357        -2.187535
 H         4.325100        -1.465748         0.339011
