19
Iteration:  1195
 C         0.059487        -0.227097        -0.041424
 C         1.495349         0.118594         0.005190
 C         1.991305         0.649459         1.405262
 C         3.457489         0.423394         1.265004
 C         4.011659         0.646406        -0.170903
 C         3.165329         1.336570        -1.196356
 O         1.726501         1.029228        -0.939751
 C         3.509720        -0.726038         0.310681
 O         2.253578        -1.165889        -0.226902
 H        -0.190607        -0.950422         0.710555
 H        -0.673292         0.568552         0.045293
 H        -0.126606        -0.741477        -1.023082
 H         1.694679         1.747425         1.302266
 H         1.479159         0.304079         2.231674
 H         4.045044         0.508057         2.195877
 H         5.095665         0.881232        -0.255698
 H         3.263032         2.436720        -1.090124
 H         3.197162         1.074843        -2.298200
 H         4.058553        -1.674725         0.467283
