19
Iteration:  1117
 C        -0.068008        -0.182706        -0.052054
 C         1.455548         0.107627         0.033925
 C         1.937138         0.565119         1.383540
 C         3.506207         0.437016         1.237939
 C         3.984349         0.629126        -0.185244
 C         3.170444         1.313756        -1.221204
 O         1.739912         1.060039        -0.999326
 C         3.618209        -0.745838         0.320580
 O         2.310772        -1.124581        -0.129326
 H        -0.375037        -0.860587         0.794501
 H        -0.557667         0.746387        -0.027682
 H        -0.386287        -0.577450        -1.041721
 H         1.510693         1.590242         1.601051
 H         1.528284        -0.058515         2.109153
 H         4.125052         0.786026         2.059883
 H         5.091710         0.650925        -0.114124
 H         3.231620         2.415063        -1.146229
 H         3.355661         1.089616        -2.304359
 H         4.228190        -1.614091         0.466762
