19
Iteration:  4640charge 0 multiplicity 1
 C        -0.012127        -0.114305        -0.131727
 C         1.486643        -0.039512        -0.015415
 C         1.984562         0.614294         1.347543
 C         3.456717         0.399484         1.214666
 C         4.051846         0.648372        -0.161642
 C         3.118771         1.523926        -0.972947
 O         1.780422         0.928638        -1.002105
 C         3.538149        -0.738036         0.216540
 O         2.249538        -1.199327        -0.150417
 H        -0.431748        -0.959453         0.579011
 H        -0.371029         0.880723         0.165260
 H        -0.430774        -0.217523        -1.116977
 H         1.664422         1.645000         1.569474
 H         1.591058         0.003250         2.225236
 H         4.087609         0.710712         2.061847
 H         5.084972         0.787736        -0.375518
 H         2.964057         2.529250        -0.505249
 H         3.533109         1.648450        -1.997592
 H         4.143141        -1.615478         0.414520
