19
Iteration:  1321
 C         0.033533        -0.254879        -0.057816
 C         1.501356         0.095523         0.006609
 C         1.907873         0.660817         1.482622
 C         3.434039         0.401146         1.262318
 C         4.001291         0.602925        -0.223228
 C         3.132439         1.396766        -1.194204
 O         1.782234         1.017442        -0.989315
 C         3.544875        -0.789780         0.253756
 O         2.272467        -1.085910        -0.146433
 H        -0.402842        -0.771411         0.829486
 H        -0.455483         0.670965        -0.111668
 H        -0.253500        -0.847249        -0.963808
 H         1.747017         1.719307         1.573671
 H         1.483173        -0.059453         2.327197
 H         4.228898         0.519007         2.025111
 H         5.049533         1.004533        -0.260574
 H         3.186697         2.557948        -1.241419
 H         3.350352         1.072826        -2.216112
 H         4.332299        -1.498501         0.398171
