19
Iteration:  2109
 C        -0.007535        -0.287387        -0.035746
 C         1.469147         0.188982         0.061931
 C         2.049767         0.747647         1.413448
 C         3.534155         0.327047         1.274376
 C         3.915907         0.642131        -0.135545
 C         3.107364         1.391287        -1.171589
 O         1.802110         0.958382        -1.103438
 C         3.541155        -0.738464         0.197517
 O         2.190760        -1.136144        -0.073999
 H        -0.191708        -1.228736         0.401620
 H        -0.648112         0.374243         0.507721
 H        -0.152542        -0.407946        -1.148246
 H         2.108415         1.895028         1.347992
 H         1.452176         0.383704         2.296065
 H         4.222714         0.481809         2.096111
 H         5.007593         0.665550        -0.285543
 H         2.969154         2.489993        -0.967607
 H         3.587715         1.151282        -2.222713
 H         4.242146        -1.593483         0.110601
