19
Iteration:  4688
 C         0.062730        -0.334410        -0.041567
 C         1.425295         0.126867         0.042018
 C         2.007314         0.736398         1.363076
 C         3.476718         0.363287         1.241570
 C         4.032628         0.577433        -0.070372
 C         3.149458         1.545786        -0.992260
 O         1.790896         0.959264        -1.089511
 C         3.489899        -0.791530         0.196081
 O         2.176884        -1.119344        -0.223108
 H         0.080087        -1.282401         0.565118
 H        -0.630019         0.505382         0.278966
 H        -0.235690        -0.466852        -1.154148
 H         1.704463         1.895750         1.250187
 H         1.529970         0.464474         2.302327
 H         4.107630         0.171644         2.106327
 H         5.199361         0.667600        -0.125595
 H         3.201313         2.561044        -0.441922
 H         3.490030         1.596941        -2.050475
 H         4.142548        -1.617853        -0.047575
