19
Iteration:  3391
 C        -0.051685        -0.345328        -0.138337
 C         1.492945         0.093839         0.008488
 C         1.944654         0.627893         1.357216
 C         3.491124         0.378546         1.289136
 C         4.017537         0.549745        -0.160820
 C         3.145509         1.277366        -1.138144
 O         1.718586         1.324215        -0.832838
 C         3.564904        -0.778276         0.340874
 O         2.320840        -1.094711        -0.283522
 H        -0.445379        -1.047489         0.540505
 H        -0.735289         0.495010        -0.221879
 H         0.031139        -0.884456        -1.126706
 H         1.582674         1.738677         1.343276
 H         1.442657         0.163169         2.183287
 H         4.007988         0.471305         2.273851
 H         5.207118         0.888064        -0.300142
 H         3.273692         2.446444        -1.227327
 H         3.416996         0.768922        -2.108355
 H         4.136183        -1.722645         0.357878
