19
Iteration:  1063charge 0 multiplicity 1
 C         0.031427        -0.290169         0.018084
 C         1.477739         0.179083        -0.023871
 C         2.016535         0.741930         1.376316
 C         3.495516         0.338005         1.262340
 C         3.969286         0.615874        -0.239335
 C         3.113889         1.486926        -1.086073
 O         1.854466         0.953598        -1.207150
 C         3.485370        -0.767024         0.255978
 O         2.173329        -1.149121        -0.016971
 H         0.093860        -1.184014         0.686097
 H        -0.627639         0.393371         0.395777
 H        -0.248127        -0.681053        -0.955046
 H         1.837918         1.891748         1.420760
 H         1.497754         0.247560         2.187857
 H         3.949171         0.156446         2.222241
 H         5.053742         0.845081        -0.184445
 H         3.096372         2.592278        -0.682563
 H         3.565535         1.525970        -2.077553
 H         4.065273        -1.691806         0.351896
