19
Iteration:  4521charge 0 multiplicity 1
 C         0.017368        -0.144249        -0.191441
 C         1.488716         0.091533         0.018919
 C         1.972029         0.498117         1.512837
 C         3.454500         0.365134         1.289941
 C         3.950158         0.725382        -0.102061
 C         3.110324         1.293056        -1.182568
 O         1.754046         1.068415        -1.006429
 C         3.610854        -0.737692         0.231985
 O         2.281630        -1.074367        -0.144261
 H        -0.303903        -1.106298         0.363759
 H        -0.658907         0.649694         0.084263
 H        -0.200434        -0.253560        -1.261417
 H         1.608151         1.445419         1.898230
 H         1.619038        -0.250171         2.270785
 H         4.207194         0.355825         2.137074
 H         4.893869         1.101778        -0.268003
 H         3.342872         2.378206        -1.203243
 H         3.372170         1.011533        -2.204781
 H         4.109637        -1.703730         0.213880
