19
Iteration:  3708charge 0 multiplicity 1
 C         0.032767        -0.199723        -0.118617
 C         1.474638         0.103259        -0.003196
 C         1.895533         0.621162         1.369928
 C         3.442370         0.326458         1.266844
 C         4.065024         0.632082        -0.129969
 C         3.116771         1.412023        -1.065195
 O         1.757469         1.039073        -0.989182
 C         3.578377        -0.759765         0.277200
 O         2.273463        -1.119724        -0.205429
 H        -0.370079        -0.760602         0.824318
 H        -0.406945         0.789923        -0.246927
 H        -0.328653        -0.718860        -0.975182
 H         1.565046         1.728382         1.256176
 H         1.520368         0.123991         2.256816
 H         4.054329         0.270941         2.205588
 H         5.034048         0.853176        -0.283288
 H         3.317033         2.455299        -0.872364
 H         3.346077         1.185536        -2.112822
 H         4.315515        -1.640240         0.444422
