19
Iteration:  2447charge 0 multiplicity 1
 C        -0.055360        -0.363155        -0.058551
 C         1.454576         0.051341         0.014547
 C         2.009288         0.852753         1.297230
 C         3.518697         0.360089         1.271483
 C         4.094846         0.550802        -0.160783
 C         3.132673         1.468912        -0.932619
 O         1.743732         0.958766        -1.033533
 C         3.532405        -0.744802         0.255024
 O         2.206763        -1.084801        -0.211212
 H        -0.573221        -0.601062         0.971257
 H        -0.598317         0.484119        -0.622089
 H        -0.163045        -1.123204        -0.845953
 H         2.053803         1.939753         1.085935
 H         1.659016         0.804591         2.326029
 H         4.080586         0.097370         2.252117
 H         5.165891         0.524515        -0.472634
 H         3.209930         2.619575        -0.762267
 H         3.399594         1.432724        -2.073381
 H         4.116433        -1.652395         0.369014
