19
Iteration:  4766charge 0 multiplicity 1
 C        -0.071973        -0.243444        -0.180376
 C         1.447349         0.074073         0.073726
 C         1.947356         0.517872         1.506931
 C         3.451756         0.322975         1.316057
 C         4.095564         0.723686        -0.118082
 C         3.137446         1.212035        -1.276900
 O         1.742073         1.232837        -0.820067
 C         3.645267        -0.704505         0.211462
 O         2.269547        -1.038451        -0.237468
 H        -0.637168        -0.878510         0.398769
 H        -0.652097         0.660837        -0.373391
 H         0.073913        -0.853766        -1.192266
 H         1.491467         1.549526         1.578083
 H         1.579811        -0.208487         2.237688
 H         4.102923         0.481114         2.212845
 H         5.058817         0.876012        -0.293495
 H         3.447984         2.247300        -1.641194
 H         3.161190         0.493277        -2.100429
 H         4.163004        -1.671397         0.259019
