19
Iteration:   906
 C         0.058173        -0.236816        -0.136796
 C         1.474446         0.080213         0.058630
 C         1.998437         0.632200         1.455616
 C         3.498217         0.400463         1.300589
 C         4.001786         0.650404        -0.217896
 C         3.082477         1.216879        -1.216896
 O         1.747387         0.992465        -1.001225
 C         3.547865        -0.699342         0.290289
 O         2.224487        -0.973694        -0.118391
 H        -0.284606        -1.030971         0.472989
 H        -0.506277         0.636583         0.332403
 H        -0.330392        -0.327217        -1.159206
 H         1.720425         1.658925         1.629167
 H         1.568252         0.056821         2.272017
 H         4.237177         0.517732         2.100831
 H         5.060112         0.760070        -0.313213
 H         3.189337         2.319213        -1.391710
 H         3.540941         0.805563        -2.107061
 H         4.122880        -1.597100         0.226314
