19
Iteration:   857
 C        -0.026829        -0.237515         0.035560
 C         1.525425         0.078654        -0.030392
 C         2.032327         0.775266         1.258380
 C         3.439640         0.418322         1.302784
 C         4.013059         0.603266        -0.169425
 C         3.124183         1.420515        -1.071488
 O         1.753898         0.925291        -1.069558
 C         3.578204        -0.791612         0.234314
 O         2.221422        -1.109579        -0.127373
 H        -0.230412        -0.740632         1.053058
 H        -0.671635         0.629615         0.127480
 H        -0.547189        -0.862518        -0.699929
 H         1.715354         1.824341         1.194664
 H         1.584520         0.342947         2.156284
 H         4.153099         0.364264         2.132038
 H         5.101801         0.599538        -0.272247
 H         3.227186         2.434505        -0.715883
 H         3.498085         1.523026        -2.175645
 H         4.139096        -1.748270         0.177792
