19
Iteration:  2581
 C         0.042279        -0.403330        -0.090148
 C         1.464889         0.192498         0.109805
 C         1.902398         0.683171         1.457304
 C         3.406332         0.304169         1.320262
 C         4.041850         0.610551        -0.204012
 C         3.168773         1.165420        -1.219622
 O         1.793586         1.214121        -0.887186
 C         3.518496        -0.729330         0.272834
 O         2.291668        -0.946000        -0.335390
 H        -0.124198        -1.298231         0.555425
 H        -0.759637         0.279641         0.216818
 H        -0.012539        -0.716310        -1.185516
 H         1.656588         1.747653         1.492736
 H         1.484126         0.277459         2.385002
 H         3.991760         0.373789         2.221489
 H         5.116321         0.845950        -0.135497
 H         3.383444         2.268702        -1.518262
 H         3.129305         0.375853        -2.082527
 H         4.039806        -1.681200         0.402009
