19
Iteration:  3809charge 0 multiplicity 1
 C         0.016603        -0.139192        -0.135742
 C         1.461184         0.113745         0.044797
 C         1.885464         0.505714         1.463489
 C         3.400089         0.416426         1.239954
 C         3.960664         0.678589        -0.104369
 C         3.209251         1.368805        -1.168706
 O         1.774530         1.008072        -0.983541
 C         3.605859        -0.743367         0.272294
 O         2.283482        -1.098722        -0.182213
 H        -0.357671        -0.923848         0.423608
 H        -0.635393         0.707883         0.149423
 H        -0.178762        -0.504589        -1.219393
 H         1.646748         1.565455         1.730842
 H         1.470906        -0.214782         2.143989
 H         4.143532         0.550435         2.037716
 H         5.161133         0.696391        -0.112809
 H         3.390189         2.442958        -1.254627
 H         3.538026         0.964370        -2.199480
 H         4.229024        -1.615242         0.163992
