19
Iteration:  1623charge 0 multiplicity 1
 C        -0.003037        -0.329198        -0.072312
 C         1.447971         0.079304         0.033787
 C         1.965813         0.719647         1.536831
 C         3.535309         0.404790         1.251813
 C         4.015699         0.654774        -0.191514
 C         3.177118         1.292381        -1.238707
 O         1.723198         1.105843        -1.025228
 C         3.559287        -0.733080         0.283340
 O         2.214750        -1.087679        -0.167297
 H        -0.322406        -1.103185         0.679362
 H        -0.683833         0.502573        -0.149093
 H        -0.219872        -0.867822        -1.103087
 H         1.811465         1.784735         1.703108
 H         1.538327         0.108239         2.377722
 H         4.231415         0.484457         2.022921
 H         5.081211         0.734239        -0.117138
 H         3.400824         2.406110        -1.242474
 H         3.434116         0.870699        -2.198101
 H         4.147088        -1.642438         0.416022
