19
Iteration:  2073charge 0 multiplicity 1
 C        -0.029421        -0.248138         0.009783
 C         1.460021         0.120581         0.056809
 C         2.035130         0.778967         1.261374
 C         3.506917         0.445285         1.204799
 C         4.080272         0.542210        -0.238329
 C         3.069858         1.445239        -0.976261
 O         1.804331         0.886630        -1.131749
 C         3.528777        -0.788995         0.255902
 O         2.188504        -1.160946        -0.084849
 H        -0.198803        -1.243592         0.536982
 H        -0.646129         0.595261         0.298406
 H        -0.399860        -0.215388        -1.032342
 H         1.818067         1.853128         1.229309
 H         1.597498         0.449049         2.254645
 H         4.206673         0.399533         2.092341
 H         5.101212         0.706926        -0.521444
 H         2.928834         2.395003        -0.320976
 H         3.383541         1.964496        -1.910164
 H         4.311436        -1.445216         0.492086
