19
Iteration:  1090charge 0 multiplicity 1
 C        -0.038517        -0.192774        -0.068163
 C         1.448163         0.030552         0.039343
 C         2.013624         0.799820         1.325098
 C         3.545512         0.403386         1.261383
 C         4.075164         0.637385        -0.126002
 C         3.081727         1.316112        -1.041284
 O         1.678961         0.926081        -1.029495
 C         3.576533        -0.728865         0.237978
 O         2.284392        -1.146711        -0.203081
 H        -0.402099        -0.995842         0.558779
 H        -0.477445         0.857020         0.230529
 H        -0.328961        -0.363748        -1.117550
 H         1.783454         1.810640         1.059983
 H         1.484179         0.555487         2.322702
 H         4.107798         0.292381         2.217879
 H         5.149094         0.783768        -0.187125
 H         3.123429         2.390268        -0.773955
 H         3.385316         1.262538        -2.103680
 H         4.142096        -1.633592         0.518154
