19
Iteration:  2793charge 0 multiplicity 1
 C         0.061254        -0.340830        -0.164723
 C         1.405486         0.201444         0.059531
 C         1.931931         0.604535         1.467037
 C         3.445983         0.363897         1.290231
 C         3.962216         0.616432        -0.177071
 C         3.169162         1.230746        -1.258620
 O         1.827126         1.193939        -0.881835
 C         3.551345        -0.718135         0.301681
 O         2.244240        -1.044534        -0.221361
 H        -0.115842        -1.153831         0.654564
 H        -0.744440         0.403339        -0.060596
 H        -0.011581        -0.782822        -1.130651
 H         1.531893         1.662859         1.689989
 H         1.567251        -0.066205         2.293960
 H         4.094954         0.550466         2.130949
 H         5.029454         0.851061        -0.154885
 H         3.418377         2.248711        -1.468580
 H         3.503610         0.720824        -2.202133
 H         4.061947        -1.684653         0.233599
