19
Iteration:  3249charge 0 multiplicity 1
 C        -0.036135        -0.255654        -0.049937
 C         1.495667         0.052438        -0.014167
 C         1.971628         0.695419         1.277043
 C         3.431138         0.367794         1.274196
 C         3.972037         0.569300        -0.183603
 C         3.144433         1.543717        -0.907380
 O         1.813169         0.960978        -1.094365
 C         3.551529        -0.797770         0.217802
 O         2.237775        -1.134761        -0.158417
 H        -0.357853        -1.026328         0.558477
 H        -0.541819         0.642780         0.307484
 H        -0.219764        -0.545117        -1.112709
 H         1.899553         1.837463         1.314947
 H         1.550225         0.296701         2.202142
 H         4.065204         0.437287         2.099926
 H         5.037634         0.898074        -0.475090
 H         3.271473         2.499941        -0.305324
 H         3.623340         1.755807        -1.865274
 H         4.296974        -1.504416         0.493457
