19
Iteration:   403charge 0 multiplicity 1
 C        -0.046252        -0.269055         0.045102
 C         1.441048         0.050785        -0.008657
 C         2.074811         0.804006         1.298715
 C         3.479151         0.314069         1.346154
 C         3.993976         0.651315         0.001305
 C         3.103620         1.430745        -1.093477
 O         1.743502         0.921782        -1.171183
 C         3.576872        -0.758240         0.234541
 O         2.235965        -1.126173        -0.180871
 H        -0.383041        -1.121976         0.758935
 H        -0.496406         0.748142         0.282625
 H        -0.273006        -0.557186        -1.012272
 H         1.953003         1.881605         0.895757
 H         1.452872         0.738688         2.120555
 H         4.203589         0.427636         2.144082
 H         5.075756         0.846031        -0.042520
 H         3.180968         2.539012        -0.991585
 H         3.554715         1.222990        -1.987066
 H         4.383758        -1.523398         0.126152
