19
Iteration:  2083
 C         0.011139        -0.277875        -0.030924
 C         1.456043         0.116265         0.004003
 C         2.101744         0.807545         1.298819
 C         3.551488         0.326920         1.203889
 C         4.079424         0.605021        -0.175125
 C         3.063396         1.507198        -1.013856
 O         1.739388         0.912794        -1.204325
 C         3.515817        -0.767514         0.259054
 O         2.151257        -1.129372         0.008069
 H        -0.150690        -1.308668         0.442719
 H        -0.602339         0.402527         0.593406
 H        -0.208953        -0.431501        -1.082319
 H         2.091002         1.868724         1.303229
 H         1.592509         0.391023         2.198153
 H         4.049053         0.293097         2.198581
 H         5.135056         0.595618        -0.416377
 H         2.807676         2.440805        -0.447518
 H         3.441990         1.712196        -2.009431
 H         4.049992        -1.688168         0.351761
