19
Iteration:  2374charge 0 multiplicity 1
 C        -0.130559        -0.232475        -0.091061
 C         1.446703         0.114364         0.055317
 C         1.920018         0.593038         1.397562
 C         3.477477         0.456020         1.210754
 C         4.036064         0.680749        -0.138191
 C         3.159064         1.086333        -1.210499
 O         1.738674         1.195148        -0.819986
 C         3.691745        -0.715686         0.288050
 O         2.340765        -1.080677        -0.311316
 H        -0.550276        -0.372591         0.991238
 H        -0.757049         0.652718        -0.361675
 H        -0.384863        -0.988708        -0.752177
 H         1.457650         1.572538         1.572328
 H         1.444963        -0.157984         2.140883
 H         4.136490         0.645647         2.114097
 H         5.099261         0.897673        -0.184226
 H         3.368835         2.057847        -1.587380
 H         3.205541         0.298161        -2.050694
 H         4.315426        -1.590063         0.623035
