19
Iteration:  1020charge 0 multiplicity 1
 C        -0.027569        -0.157600        -0.063249
 C         1.484911         0.047638         0.057972
 C         2.004771         0.755462         1.379425
 C         3.449911         0.394840         1.243000
 C         3.968419         0.596878        -0.161233
 C         3.097566         1.374263        -1.108266
 O         1.756672         0.935113        -1.014364
 C         3.594799        -0.757083         0.285743
 O         2.285436        -1.166145        -0.201270
 H        -0.350332        -0.802218         0.791457
 H        -0.464461         0.765965        -0.067149
 H        -0.317275        -0.672665        -0.974304
 H         1.864032         1.935831         1.192393
 H         1.465737         0.454923         2.337258
 H         4.293070         0.412949         1.912201
 H         5.049272         0.834408        -0.401925
 H         3.044159         2.517410        -0.853431
 H         3.399023         1.385402        -2.138348
 H         4.275460        -1.574283         0.598574
