19
Iteration:   211
 C        -0.053307        -0.205123        -0.155140
 C         1.515902         0.081644         0.048492
 C         1.961385         0.686564         1.466108
 C         3.477088         0.439789         1.256726
 C         4.019337         0.626381        -0.298294
 C         3.119665         1.436203        -1.178973
 O         1.802863         0.977453        -1.021360
 C         3.529824        -0.745046         0.345182
 O         2.252541        -1.200610        -0.085651
 H        -0.309646        -1.140328         0.436289
 H        -0.739416         0.580906         0.185371
 H        -0.340738        -0.461920        -1.176342
 H         1.718451         1.719843         1.589508
 H         1.673984         0.009181         2.374675
 H         4.177146         0.538741         2.045478
 H         5.081171         0.782795        -0.363954
 H         3.228183         2.519338        -0.951274
 H         3.390625         1.332254        -2.234816
 H         4.202596        -1.534715         0.546579
