19
Iteration:    94
 C         0.051330        -0.211470        -0.170582
 C         1.444641         0.102089         0.039178
 C         1.969321         0.593355         1.446978
 C         3.456748         0.457950         1.207553
 C         4.011180         0.625798        -0.193863
 C         3.123170         1.286570        -1.175552
 O         1.754044         0.999040        -0.986545
 C         3.604090        -0.733604         0.260777
 O         2.220414        -1.037635        -0.016501
 H        -0.240793        -0.935897         0.702659
 H        -0.574282         0.757494        -0.160439
 H        -0.133906        -0.754446        -1.154164
 H         1.615160         1.613416         1.721643
 H         1.571386        -0.240535         2.000331
 H         4.253648         0.627749         1.873923
 H         5.023581         0.907860        -0.347289
 H         3.223830         2.409806        -1.098151
 H         3.337941         1.005460        -2.194663
 H         4.211243        -1.594489         0.286877
