19
Iteration:  1359
 C        -0.087955        -0.261539        -0.138108
 C         1.471531         0.090553         0.048238
 C         1.959778         0.647827         1.439605
 C         3.499884         0.435209         1.296083
 C         4.011899         0.637806        -0.158875
 C         3.097291         1.189936        -1.211477
 O         1.699426         1.102306        -0.890142
 C         3.642653        -0.697344         0.300080
 O         2.348694        -1.060508        -0.255840
 H        -0.379253        -0.931524         0.680458
 H        -0.538305         0.795013         0.073903
 H        -0.378168        -0.595721        -1.131648
 H         1.589077         1.703851         1.574399
 H         1.487351         0.136601         2.226444
 H         4.221401         0.526813         2.098247
 H         5.052768         0.851133        -0.181709
 H         3.423489         2.182009        -1.602124
 H         3.215693         0.432904        -2.042975
 H         4.203777        -1.648457         0.285450
