19
Iteration:  2551
 C        -0.017868        -0.352157        -0.130424
 C         1.468462         0.181388         0.063802
 C         1.937279         0.544236         1.421514
 C         3.461127         0.444194         1.290376
 C         4.015761         0.614865        -0.205568
 C         3.174472         1.202428        -1.239199
 O         1.788560         1.297459        -0.940845
 C         3.512445        -0.756416         0.333807
 O         2.262965        -1.055475        -0.186333
 H         0.003375        -1.366493         0.107520
 H        -0.700603         0.162680         0.556792
 H        -0.449416        -0.234711        -1.195429
 H         1.508214         1.514842         1.771259
 H         1.741144        -0.222872         2.195746
 H         4.139910         0.535473         2.189601
 H         5.151606         0.732621        -0.296860
 H         3.511485         2.216205        -1.611898
 H         3.294677         0.505036        -2.020950
 H         4.160601        -1.614595         0.477564
