19
Iteration:  1716charge 0 multiplicity 1
 C        -0.016571        -0.192963        -0.030435
 C         1.487310         0.022423         0.087216
 C         2.008046         0.627916         1.345251
 C         3.430868         0.473091         1.206578
 C         3.971928         0.597653        -0.259414
 C         3.097180         1.528923        -1.135058
 O         1.824031         0.926704        -1.125326
 C         3.547983        -0.752418         0.305266
 O         2.212785        -1.169896        -0.026522
 H        -0.323306        -1.099913         0.568663
 H        -0.490234         0.773326         0.235337
 H        -0.137142        -0.301893        -1.086797
 H         1.863714         1.681331         1.587855
 H         1.697291         0.041579         2.165091
 H         4.178503         0.592370         1.967604
 H         5.085632         0.537601        -0.276970
 H         3.180767         2.505572        -0.600040
 H         3.522693         1.617512        -2.178044
 H         4.313659        -1.495248         0.359836
