19
Iteration:  2122charge 0 multiplicity 1
 C         0.004674        -0.204463        -0.022776
 C         1.460367         0.045365         0.090314
 C         1.997326         0.719078         1.383176
 C         3.443348         0.415906         1.221682
 C         4.092915         0.640370        -0.189701
 C         3.155057         1.341260        -1.166452
 O         1.707069         0.968799        -1.008382
 C         3.538279        -0.741141         0.250396
 O         2.235146        -1.108737        -0.151888
 H        -0.133514        -1.136328         0.496361
 H        -0.652617         0.628607         0.333732
 H        -0.276843        -0.336893        -1.041818
 H         1.628887         1.779502         1.473439
 H         1.674524         0.200877         2.283240
 H         4.053336         0.385967         2.070855
 H         5.207099         0.837076        -0.328245
 H         3.355433         2.439012        -1.127839
 H         3.352138         1.091566        -2.265394
 H         4.215971        -1.624519         0.419048
