19
Iteration:    50
 C         0.027840        -0.258411        -0.047333
 C         1.464607         0.070148         0.020333
 C         1.943142         0.717725         1.328461
 C         3.404313         0.440734         1.259121
 C         4.036028         0.640696        -0.088955
 C         3.129370         1.231174        -1.189903
 O         1.764175         1.039560        -0.925187
 C         3.564097        -0.760613         0.237141
 O         2.284208        -1.065463        -0.205068
 H        -0.190027        -1.091983         0.767666
 H        -0.460356         0.708521         0.294540
 H        -0.345170        -0.645056        -1.038005
 H         1.662652         1.815146         1.280482
 H         1.489716         0.388554         2.286428
 H         4.028001         0.504282         2.145312
 H         5.082366         0.931886        -0.227908
 H         3.312048         2.331312        -1.353176
 H         3.377723         0.710025        -2.134959
 H         4.242771        -1.590224         0.385832
