19
Iteration:   254charge 0 multiplicity 1
 C        -0.075639        -0.339113        -0.030231
 C         1.432747         0.140765         0.006588
 C         1.973816         0.723184         1.414377
 C         3.437416         0.361584         1.319787
 C         4.003150         0.671185        -0.099141
 C         3.131269         1.284811        -1.275140
 O         1.769966         1.091911        -0.995593
 C         3.574708        -0.755594         0.313014
 O         2.295371        -1.072368        -0.253785
 H         0.043136        -0.980391         0.831618
 H        -0.617598         0.528052         0.068777
 H        -0.196042        -0.844768        -0.925671
 H         1.863752         1.799010         1.328990
 H         1.465951         0.357210         2.398207
 H         4.157325         0.158623         2.071609
 H         5.070579         0.805306        -0.125876
 H         3.436283         2.289793        -1.379235
 H         3.535098         0.687527        -2.147143
 H         4.267549        -1.523248         0.622073
