19
Iteration:  2114charge 0 multiplicity 1
 C         0.012998        -0.242999        -0.032357
 C         1.451053         0.122519         0.080025
 C         2.029661         0.744173         1.417754
 C         3.486493         0.360963         1.252409
 C         3.998633         0.682058        -0.171760
 C         3.101485         1.353851        -1.188751
 O         1.772170         0.963634        -1.068668
 C         3.543787        -0.739644         0.206970
 O         2.213392        -1.138274        -0.108281
 H        -0.116530        -1.258655         0.466062
 H        -0.753955         0.477545         0.406923
 H        -0.200145        -0.332154        -1.074082
 H         1.968432         1.806196         1.433439
 H         1.547796         0.350221         2.291118
 H         4.097026         0.459641         2.163107
 H         5.091136         0.600763        -0.227184
 H         3.254598         2.431826        -0.948821
 H         3.501868         1.150002        -2.127371
 H         4.154709        -1.638820         0.222923
