19
Iteration:  2273
 C         0.006225        -0.071905         0.017022
 C         1.482787         0.107647        -0.046135
 C         2.067293         0.748838         1.310799
 C         3.535907         0.245620         1.348700
 C         3.985176         0.701826        -0.077601
 C         3.010858         1.448162        -1.016691
 O         1.769879         0.734432        -1.220146
 C         3.580558        -0.749190         0.188864
 O         2.254816        -1.117143        -0.083010
 H        -0.359801        -1.061761         0.350819
 H        -0.399492         0.710578         0.734852
 H        -0.425003         0.044537        -1.088137
 H         1.854539         1.874778         1.260642
 H         1.357657         0.334484         2.092241
 H         4.184453         0.421015         2.168636
 H         5.030623         0.933723        -0.308680
 H         2.552233         2.360527        -0.661905
 H         3.429869         1.583663        -2.044344
 H         4.166095        -1.640537         0.190765
