19
Iteration:   822charge 0 multiplicity 1
 C        -0.026798        -0.264588        -0.112647
 C         1.458444         0.099520         0.034661
 C         2.145498         0.776218         1.428599
 C         3.560094         0.318744         1.260133
 C         4.001151         0.635440        -0.176466
 C         3.076474         1.492468        -1.136123
 O         1.751264         0.887374        -1.151491
 C         3.518190        -0.810303         0.248677
 O         2.181926        -1.074809        -0.005219
 H        -0.303836        -0.796342         0.761649
 H        -0.643493         0.656676        -0.234878
 H        -0.114411        -0.911176        -0.944313
 H         1.878548         1.882718         1.404859
 H         1.558917         0.280578         2.214975
 H         4.139656         0.406705         2.190744
 H         5.018168         0.852571        -0.360062
 H         2.886554         2.460473        -0.726020
 H         3.574363         1.529130        -2.142309
 H         4.083604        -1.713417         0.328211
