19
Iteration:  3832charge 0 multiplicity 1
 C         0.019944        -0.282460        -0.040284
 C         1.465889         0.096767        -0.046141
 C         1.981803         0.640586         1.351305
 C         3.434631         0.330355         1.311391
 C         4.024353         0.633706        -0.106986
 C         3.176540         1.495264        -1.058177
 O         1.782714         1.047726        -1.107049
 C         3.506318        -0.752607         0.273712
 O         2.220622        -1.135186        -0.159477
 H        -0.384272        -0.863197         0.736968
 H        -0.537187         0.675177        -0.019750
 H        -0.224717        -0.825755        -1.004343
 H         1.776228         1.708306         1.382723
 H         1.431473         0.115573         2.124658
 H         4.104722         0.176949         2.156374
 H         5.251591         0.712442        -0.210068
 H         3.065054         2.561353        -0.893209
 H         3.778558         1.468455        -2.027277
 H         4.175695        -1.644849         0.345675
