19
Iteration:  4844
 C         0.009462        -0.160746        -0.052047
 C         1.471610         0.031890         0.050366
 C         2.034958         0.615899         1.329851
 C         3.503830         0.278745         1.299379
 C         4.003631         0.697059        -0.068093
 C         3.088043         1.510277        -1.024300
 O         1.761287         0.952843        -1.121751
 C         3.561823        -0.754123         0.244488
 O         2.211490        -1.129482        -0.226365
 H        -0.334995        -0.979880         0.578511
 H        -0.534938         0.657571         0.390395
 H        -0.347786        -0.333933        -1.091821
 H         1.861718         1.663868         1.336002
 H         1.372328         0.148071         2.119292
 H         4.137973         0.276585         2.180567
 H         5.080077         0.889774        -0.072932
 H         3.108455         2.606090        -0.787370
 H         3.505785         1.491587        -2.013101
 H         4.312407        -1.603612         0.117378
