19
Iteration:   688
 C        -0.090442        -0.257340        -0.195616
 C         1.458640         0.069499         0.101068
 C         2.028800         0.634220         1.416778
 C         3.520213         0.455796         1.256769
 C         4.015628         0.641613        -0.251179
 C         3.124469         1.259142        -1.265512
 O         1.777362         1.116112        -0.949926
 C         3.559882        -0.703125         0.338320
 O         2.235867        -1.101729        -0.036456
 H        -0.404041        -0.978212         0.545042
 H        -0.616789         0.632579        -0.117688
 H        -0.127545        -0.749344        -1.162382
 H         1.618869         1.712459         1.696486
 H         1.637439        -0.082794         2.146291
 H         4.139745         0.489375         2.151258
 H         5.119021         0.554492        -0.393093
 H         3.172091         2.332721        -1.378703
 H         3.328494         0.775596        -2.314213
 H         4.320929        -1.482534         0.358378
