19
Iteration:  4863charge 0 multiplicity 1
 C         0.016976        -0.107260        -0.021666
 C         1.473732         0.074148        -0.084479
 C         1.955351         0.665088         1.410932
 C         3.434345         0.373874         1.254619
 C         3.982515         0.571627        -0.183233
 C         3.047380         1.531877        -0.922949
 O         1.812130         0.906021        -1.074700
 C         3.579340        -0.781252         0.166155
 O         2.322114        -1.212412        -0.192468
 H        -0.347712        -0.909121         0.526973
 H        -0.276769         0.847088         0.450246
 H        -0.336210        -0.181924        -1.181873
 H         1.700326         1.779121         1.385301
 H         1.505157         0.106237         2.181408
 H         4.017021         0.473653         2.189198
 H         4.922412         0.693307        -0.442570
 H         2.887778         2.416837        -0.375772
 H         3.465840         1.940828        -1.850682
 H         4.249382        -1.590346         0.499521
