19
Iteration:  4948
 C        -0.063742        -0.280746        -0.051471
 C         1.437123         0.063546        -0.063752
 C         1.941839         0.534777         1.401522
 C         3.471141         0.439910         1.303926
 C         4.122229         0.631383        -0.155489
 C         3.186435         1.244694        -1.148526
 O         1.721436         1.250420        -0.846036
 C         3.551878        -0.752859         0.306630
 O         2.297977        -1.043411        -0.326205
 H        -0.263433        -0.923176         0.726424
 H        -0.748678         0.601029        -0.173463
 H        -0.428710        -0.989385        -0.957048
 H         1.416686         1.627534         1.628502
 H         1.628070        -0.152401         2.211417
 H         4.104712         0.272039         2.187862
 H         5.239630         0.789495        -0.318452
 H         3.365470         2.403541        -1.182594
 H         3.228917         0.776446        -2.186052
 H         4.193344        -1.647615         0.254585
