19
Iteration:  1736charge 0 multiplicity 1
 C        -0.037297        -0.225135        -0.070606
 C         1.445640         0.066270         0.013322
 C         1.920121         0.702455         1.373967
 C         3.523236         0.550175         1.198599
 C         4.091629         0.547073        -0.213144
 C         3.135429         1.333048        -1.133546
 O         1.721464         1.030424        -0.953544
 C         3.544698        -0.778528         0.301832
 O         2.276185        -1.125276        -0.151944
 H        -0.044181        -1.228936         0.456102
 H        -0.699815         0.527243         0.519490
 H        -0.321362        -0.496407        -1.077404
 H         1.534266         1.690412         1.492942
 H         1.725056         0.082215         2.251081
 H         4.253926         0.573514         2.053837
 H         5.137350         0.838618        -0.490401
 H         3.431841         2.406830        -0.946027
 H         3.264372         1.085477        -2.182714
 H         4.079428        -1.679352         0.513404
