19
Iteration:  4806charge 0 multiplicity 1
 C         0.072243        -0.353772        -0.076548
 C         1.451895         0.117634         0.083028
 C         1.922964         0.575189         1.420991
 C         3.443981         0.397243         1.285276
 C         4.033171         0.561790        -0.172820
 C         3.165087         1.390239        -1.193869
 O         1.780357         1.180659        -0.905682
 C         3.532958        -0.781524         0.268092
 O         2.215289        -1.039303        -0.304841
 H        -0.183946        -1.187425         0.660123
 H        -0.521814         0.597147        -0.076150
 H        -0.006520        -0.704095        -1.115850
 H         1.641597         1.676068         1.574273
 H         1.453400         0.067324         2.273730
 H         4.074300         0.517907         2.174718
 H         5.155585         0.757861        -0.201071
 H         3.311958         2.428655        -1.029636
 H         3.388183         0.986087        -2.216695
 H         4.093715        -1.650828         0.501479
