19
Iteration:   313charge 0 multiplicity 1
 C        -0.003132        -0.235522        -0.162828
 C         1.499468         0.062874         0.119393
 C         1.942078         0.687310         1.431600
 C         3.512861         0.416409         1.278466
 C         3.946506         0.621431        -0.136922
 C         3.113016         1.280896        -1.212958
 O         1.708879         1.047127        -0.979699
 C         3.673826        -0.762803         0.298596
 O         2.242329        -1.109848        -0.165831
 H        -0.781793        -0.747753         0.397552
 H        -0.484604         0.829077        -0.210016
 H        -0.103462        -0.686686        -1.227422
 H         1.790788         1.771297         1.437609
 H         1.771359         0.318097         2.453399
 H         4.177433         0.810217         2.067187
 H         5.043728         0.774728        -0.085938
 H         3.310279         2.391600        -1.306212
 H         3.269063         0.886209        -2.185225
 H         4.376384        -1.570501         0.158040
