19
Iteration:  3270
 C         0.005911        -0.309578        -0.091533
 C         1.401543         0.147413        -0.049964
 C         2.057316         0.732144         1.301971
 C         3.522342         0.305710         1.282205
 C         4.087696         0.671513        -0.076774
 C         3.069713         1.544632        -0.961522
 O         1.805194         0.970448        -1.180497
 C         3.477123        -0.812512         0.258370
 O         2.161045        -1.142854        -0.099993
 H         0.113763        -1.176128         0.431376
 H        -0.630422         0.288499         0.526929
 H        -0.132287        -0.621189        -1.129881
 H         2.092114         1.840715         1.443334
 H         1.412622         0.229061         1.994013
 H         4.115782         0.229695         2.135324
 H         5.263441         0.494991        -0.282269
 H         3.147072         2.543239        -0.248885
 H         3.369425         1.865858        -1.969580
 H         4.129533        -1.664592         0.176007
