19
Iteration:  1357
 C        -0.095225        -0.259302        -0.126524
 C         1.459117         0.085877         0.029072
 C         1.967590         0.648736         1.431991
 C         3.521240         0.452047         1.302778
 C         4.027898         0.628925        -0.155881
 C         3.087246         1.199608        -1.191229
 O         1.698507         1.098253        -0.885121
 C         3.643577        -0.704042         0.302999
 O         2.351165        -1.071035        -0.259327
 H        -0.496492        -0.913212         0.656803
 H        -0.539508         0.771820         0.019000
 H        -0.413740        -0.578486        -1.149131
 H         1.592416         1.730398         1.532322
 H         1.403773         0.122874         2.171893
 H         4.184111         0.584959         2.142748
 H         5.081504         0.837728        -0.247869
 H         3.452850         2.187051        -1.631752
 H         3.150927         0.453347        -1.966505
 H         4.262372        -1.624429         0.218114
