19
Iteration:  4692
 C         0.025998        -0.304248        -0.018008
 C         1.425576         0.097917         0.074924
 C         1.967102         0.757857         1.321685
 C         3.476496         0.365221         1.238320
 C         4.041388         0.569238        -0.084303
 C         3.177044         1.524756        -1.004177
 O         1.804920         1.007387        -1.061500
 C         3.501870        -0.771590         0.192487
 O         2.195116        -1.144524        -0.249061
 H        -0.022055        -1.201135         0.484054
 H        -0.724524         0.355361         0.323593
 H        -0.197526        -0.614171        -1.062714
 H         1.693071         1.750228         1.253896
 H         1.552504         0.297564         2.242161
 H         4.166401         0.281613         2.116010
 H         5.027722         0.690120        -0.127182
 H         3.159151         2.495041        -0.483414
 H         3.556873         1.502835        -1.995217
 H         4.206480        -1.608452         0.109288
