19
Iteration:  1797charge 0 multiplicity 1
 C        -0.032970        -0.277500         0.017228
 C         1.407715         0.110925         0.068328
 C         1.960863         0.572640         1.366687
 C         3.427783         0.465396         1.212955
 C         4.032149         0.654790        -0.214551
 C         3.198436         1.126413        -1.241248
 O         1.712275         1.191721        -0.901504
 C         3.573700        -0.763393         0.337771
 O         2.345337        -0.986420        -0.241016
 H        -0.322519        -0.794648         0.864266
 H        -0.671006         0.583174        -0.043854
 H        -0.251420        -0.795665        -0.979243
 H         1.558498         1.528149         1.798293
 H         1.598232        -0.221694         2.118712
 H         4.200850         0.719303         2.024928
 H         5.093502         0.885118        -0.120624
 H         3.446859         2.098562        -1.681731
 H         3.325116         0.414749        -2.144215
 H         4.095627        -1.734523         0.427091
