19
Iteration:   275
 C         0.030977        -0.347834         0.085528
 C         1.422240         0.082470         0.017789
 C         1.899165         0.642329         1.360097
 C         3.371399         0.472221         1.263358
 C         4.067351         0.579936        -0.130022
 C         3.241520         1.252464        -1.219006
 O         1.781579         1.146329        -1.012672
 C         3.564035        -0.726257         0.284880
 O         2.218139        -1.006798        -0.237392
 H        -0.019740        -0.894505         1.024316
 H        -0.534708         0.490584        -0.035009
 H        -0.066555        -0.941848        -0.744020
 H         1.467248         1.624205         1.658377
 H         1.409619        -0.136035         1.984363
 H         4.009599         0.743201         2.074846
 H         5.138991         0.757944        -0.123924
 H         3.457015         2.297695        -1.326063
 H         3.606250         0.605120        -2.139538
 H         4.179291        -1.606972         0.221585
