19
Iteration:  3928
 C        -0.000765        -0.133083        -0.154014
 C         1.474554         0.021774         0.013341
 C         1.922893         0.539996         1.471062
 C         3.430418         0.423140         1.343149
 C         4.030285         0.652849        -0.108637
 C         3.110499         1.281092        -1.248380
 O         1.773681         1.049836        -0.892208
 C         3.556719        -0.741896         0.343059
 O         2.319582        -1.071535        -0.308087
 H        -0.487587        -0.905331         0.336476
 H        -0.466840         0.816503         0.183066
 H        -0.114235        -0.371313        -1.297365
 H         1.667038         1.668506         1.589974
 H         1.393820        -0.078709         2.200447
 H         4.093631         0.597060         2.197060
 H         5.130561         0.841786        -0.118741
 H         3.264761         2.386519        -1.373214
 H         3.172951         1.011733        -2.286755
 H         4.366989        -1.523213         0.410280
