19
Iteration:  2721
 C        -0.024038        -0.303641        -0.058374
 C         1.416759         0.159567         0.023486
 C         1.949350         0.548764         1.483940
 C         3.452928         0.372707         1.244904
 C         4.067554         0.681326        -0.119650
 C         3.217031         1.295827        -1.213623
 O         1.771203         1.111439        -1.074042
 C         3.571305        -0.698920         0.292014
 O         2.208469        -1.057753        -0.157156
 H        -0.156009        -1.318409         0.320959
 H        -0.685377         0.378704         0.488913
 H        -0.214575        -0.328459        -1.196619
 H         1.534492         1.528563         1.849118
 H         1.293900        -0.080229         2.111165
 H         3.989896         0.397273         2.168633
 H         5.164260         0.676541        -0.256824
 H         3.515996         2.463025        -1.261897
 H         3.658210         0.932891        -2.192613
 H         4.218516        -1.543048         0.382933
