19
Iteration:  3857
 C        -0.017946        -0.326027        -0.074189
 C         1.416657         0.134298        -0.036105
 C         2.044858         0.840495         1.255823
 C         3.441811         0.322084         1.316413
 C         4.065016         0.529425        -0.129186
 C         3.104604         1.441249        -0.873718
 O         1.796615         0.959483        -1.070961
 C         3.556844        -0.807994         0.222126
 O         2.231295        -1.093240        -0.246699
 H        -0.383110        -0.795252         0.936146
 H        -0.696188         0.516527        -0.125445
 H        -0.177608        -1.012148        -0.830521
 H         1.907760         1.866258         1.083619
 H         1.500954         0.596249         2.192132
 H         4.081144         0.506515         2.172399
 H         5.097189         0.885935        -0.178329
 H         2.881703         2.437855        -0.346701
 H         3.629438         1.859281        -1.751019
 H         4.177605        -1.707301         0.294716
