19
Iteration:  3171charge 0 multiplicity 1
 C        -0.020253        -0.372269        -0.129471
 C         1.440428         0.034411         0.048163
 C         1.925960         0.594280         1.431688
 C         3.389052         0.425143         1.242769
 C         4.077086         0.581705        -0.097237
 C         3.130287         1.215511        -1.220594
 O         1.786260         1.292593        -0.818565
 C         3.513334        -0.743883         0.311771
 O         2.318206        -0.994082        -0.351708
 H        -0.257774        -0.939758         0.746908
 H        -0.597723         0.526582        -0.187859
 H        -0.033069        -0.864505        -1.074194
 H         1.561665         1.627119         1.452857
 H         1.672335        -0.006945         2.336806
 H         4.136926         0.414091         2.068114
 H         5.237216         0.896870        -0.217307
 H         3.441469         2.235916        -1.326371
 H         3.267908         0.669233        -2.155795
 H         4.233047        -1.516088         0.585311
