19
Iteration:    45
 C         0.020295        -0.292433        -0.009460
 C         1.434018         0.155172         0.016090
 C         1.945863         0.697390         1.343917
 C         3.387572         0.473131         1.246116
 C         3.988782         0.604307        -0.076786
 C         3.166632         1.226246        -1.175393
 O         1.791837         1.037032        -0.963983
 C         3.580993        -0.773131         0.223546
 O         2.278717        -1.053681        -0.196056
 H        -0.062486        -1.057174         0.729079
 H        -0.538521         0.582203         0.274049
 H        -0.337082        -0.636245        -0.966180
 H         1.732372         1.749488         1.340027
 H         1.489443         0.140261         2.190374
 H         4.023759         0.659735         2.128435
 H         5.023397         0.937671        -0.238734
 H         3.344209         2.298283        -1.301917
 H         3.399967         0.732955        -2.131169
 H         4.311821        -1.601531         0.269179
