19
Iteration:  1759charge 0 multiplicity 1
 C         0.008507        -0.366411        -0.044505
 C         1.459135         0.151442         0.057177
 C         2.021796         0.735956         1.391587
 C         3.464735         0.272322         1.321314
 C         3.972107         0.679038        -0.110005
 C         3.154848         1.169436        -1.295997
 O         1.702321         1.146354        -0.944260
 C         3.552167        -0.725680         0.286378
 O         2.285537        -0.995480        -0.216088
 H        -0.275301        -1.359323         0.482126
 H        -0.598329         0.469903         0.439673
 H        -0.208091        -0.566249        -1.064118
 H         1.948171         1.805412         1.330033
 H         1.555742         0.341127         2.270288
 H         4.084963         0.527346         2.144746
 H         5.015991         1.000702        -0.253736
 H         3.490400         2.178732        -1.670624
 H         3.188355         0.413965        -2.104312
 H         4.197156        -1.584861         0.272130
