19
Iteration:   295
 C        -0.033234        -0.258317        -0.079726
 C         1.447395         0.111877        -0.009359
 C         1.981370         0.618646         1.415774
 C         3.462530         0.456187         1.232447
 C         4.046150         0.619854        -0.149220
 C         3.164486         1.255364        -1.235827
 O         1.748860         1.112877        -0.958727
 C         3.528120        -0.721578         0.348775
 O         2.318315        -1.093759        -0.183097
 H        -0.223548        -0.795253         0.874906
 H        -0.766414         0.556225        -0.136897
 H        -0.332746        -0.910258        -0.895879
 H         1.524116         1.674369         1.576928
 H         1.554460        -0.024730         2.139561
 H         4.058035         0.369662         2.139723
 H         5.090356         0.897166        -0.386577
 H         3.267127         2.352339        -1.202628
 H         3.321829         0.767243        -2.275638
 H         4.081462        -1.545811         0.708712
