19
Iteration:  1835
 C         0.034361        -0.177170        -0.120526
 C         1.497254         0.063467         0.131562
 C         1.971547         0.679157         1.431423
 C         3.508174         0.393195         1.149995
 C         3.963202         0.599538        -0.207031
 C         3.103763         1.399253        -1.181306
 O         1.725666         1.003394        -0.963163
 C         3.511774        -0.741277         0.234564
 O         2.283027        -1.164390        -0.051732
 H        -0.529783        -0.723525         0.750990
 H        -0.329978         0.824136        -0.480218
 H         0.031803        -0.833507        -0.977969
 H         1.760081         1.743145         1.363798
 H         1.526507         0.131328         2.321352
 H         4.214947         0.529544         1.887752
 H         5.017680         0.810202        -0.333286
 H         3.124572         2.516354        -1.022103
 H         3.447063         1.088613        -2.130034
 H         4.320447        -1.484650         0.150274
