19
Iteration:  2422
 C         0.009351        -0.195945        -0.129710
 C         1.459896         0.154867         0.026439
 C         1.991472         0.645080         1.438604
 C         3.500777         0.342145         1.280551
 C         3.978139         0.649653        -0.126602
 C         3.087496         1.326812        -1.159893
 O         1.702867         1.064727        -1.037862
 C         3.610403        -0.785607         0.267422
 O         2.277398        -1.131051        -0.125573
 H        -0.431671        -0.253881         0.802469
 H        -0.561032         0.421654        -0.803942
 H         0.009431        -1.185746        -0.674624
 H         1.880846         1.716866         1.706749
 H         1.636182         0.085898         2.295815
 H         4.074571         0.530637         2.177941
 H         5.061720         0.950189        -0.098660
 H         3.281622         2.459210        -1.218451
 H         3.319372         1.002101        -2.307977
 H         4.198003        -1.684779         0.124757
