19
Iteration:  3582charge 0 multiplicity 1
 C         0.069725        -0.261152        -0.155304
 C         1.484883         0.089360         0.075554
 C         1.927243         0.487496         1.470432
 C         3.422774         0.426543         1.308054
 C         3.958752         0.672605        -0.050327
 C         3.198787         1.154082        -1.329977
 O         1.768875         1.217712        -0.937722
 C         3.508924        -0.697610         0.311471
 O         2.281965        -1.013230        -0.277482
 H        -0.284969        -0.969281         0.551547
 H        -0.467549         0.677095         0.191384
 H        -0.204279        -0.413054        -1.275450
 H         1.562922         1.435811         1.838545
 H         1.513588        -0.295932         2.241115
 H         3.929643         0.528977         2.295291
 H         5.044661         1.067548         0.035179
 H         3.422911         2.076364        -1.712582
 H         3.470645         0.399837        -2.107932
 H         4.152997        -1.597972         0.374414
