19
Iteration:  2476charge 0 multiplicity 1
 C         0.042591        -0.288382         0.070492
 C         1.474005         0.156517        -0.088326
 C         1.962775         0.690574         1.263336
 C         3.469008         0.363571         1.209032
 C         3.952151         0.604876        -0.184884
 C         3.140277         1.550470        -0.937991
 O         1.843070         0.959008        -1.203948
 C         3.536691        -0.847198         0.285016
 O         2.171998        -1.117685        -0.064504
 H        -0.019549        -1.017079         0.777528
 H        -0.612426         0.560976         0.118551
 H        -0.203378        -0.766119        -0.920203
 H         1.916026         1.782592         1.458220
 H         1.505234         0.166533         2.097525
 H         4.138205         0.551037         2.081653
 H         5.073492         0.655007        -0.111359
 H         3.154214         2.518448        -0.514881
 H         3.553224         1.684529        -2.014581
 H         4.126984        -1.741061         0.461908
