19
Iteration:   455charge 0 multiplicity 1
 C        -0.020719        -0.248614        -0.169921
 C         1.432371        -0.006538         0.058899
 C         1.963190         0.599886         1.413507
 C         3.461979         0.562579         1.200705
 C         3.971283         0.590653        -0.241355
 C         3.177459         1.341255        -1.164622
 O         1.813976         1.126489        -1.016230
 C         3.539712        -0.724463         0.263956
 O         2.258108        -1.140867        -0.002717
 H        -0.422406        -0.806869         0.644733
 H        -0.512372         0.744247        -0.038857
 H        -0.311595        -1.024711        -0.888081
 H         1.441018         1.512198         1.676674
 H         1.809658        -0.139748         2.386201
 H         4.189000         0.682317         1.982364
 H         5.077926         0.505286        -0.412601
 H         3.398878         2.394105        -0.820915
 H         3.463409         1.160698        -2.343264
 H         4.215739        -1.544855         0.332213
