19
Iteration:  3677charge 0 multiplicity 1
 C        -0.064428        -0.141944        -0.094164
 C         1.433272         0.127614         0.016420
 C         2.013914         0.603985         1.345225
 C         3.512863         0.356592         1.284536
 C         4.008840         0.689615        -0.080653
 C         3.066609         1.533952        -0.910758
 O         1.870737         0.853581        -1.238349
 C         3.609021        -0.750430         0.239945
 O         2.187045        -1.210304        -0.121469
 H        -0.458379        -0.543692         0.772329
 H        -0.507431         0.853544        -0.127136
 H        -0.268133        -0.546159        -1.045836
 H         1.577082         1.612638         1.386536
 H         1.634422         0.145763         2.177601
 H         4.234521         0.277424         2.141974
 H         5.016687         0.890021        -0.343985
 H         3.063471         2.528939        -0.482158
 H         3.426085         1.752886        -1.911792
 H         4.204770        -1.684460         0.126020
