19
Iteration:  2729
 C        -0.043513        -0.286503        -0.089259
 C         1.456706         0.127146         0.091729
 C         1.871613         0.501726         1.484835
 C         3.438898         0.392329         1.317587
 C         4.007856         0.691824        -0.101949
 C         3.223407         1.265610        -1.297099
 O         1.815196         1.151764        -1.069921
 C         3.561222        -0.731703         0.270464
 O         2.258362        -1.038166        -0.148888
 H        -0.320984        -1.361499         0.224041
 H        -0.643870         0.476829         0.407391
 H        -0.274681        -0.069602        -1.107989
 H         1.785584         1.627096         1.719498
 H         1.593699        -0.302676         2.270754
 H         4.158948         0.450924         2.117833
 H         5.072319         0.929408        -0.202606
 H         3.401621         2.296091        -1.456527
 H         3.363240         0.779611        -2.305701
 H         4.298260        -1.535938         0.269057
