19
Iteration:  3620charge 0 multiplicity 1
 C        -0.035771        -0.311150        -0.150117
 C         1.415713         0.094754        -0.007539
 C         2.005497         0.713338         1.297640
 C         3.421874         0.384502         1.310313
 C         4.066418         0.615059        -0.108085
 C         3.203266         1.411455        -1.078648
 O         1.748422         1.082183        -0.965326
 C         3.547411        -0.784159         0.285508
 O         2.244189        -1.130242        -0.186416
 H        -0.299952        -1.254219         0.426855
 H        -0.500238         0.572772         0.250756
 H        -0.348131        -0.526551        -1.123933
 H         1.815969         1.826380         1.201254
 H         1.602390         0.243842         2.186292
 H         4.101909         0.303970         2.144264
 H         5.097908         0.695466        -0.157938
 H         3.295651         2.523070        -0.781353
 H         3.420016         1.178125        -2.134810
 H         4.243967        -1.653276         0.375958
