19
Iteration:  2455
 C         0.003495        -0.340006        -0.038275
 C         1.405344         0.064405         0.028359
 C         2.008571         0.895855         1.312904
 C         3.475999         0.384727         1.266107
 C         4.099106         0.555045        -0.236049
 C         3.131886         1.484750        -0.922944
 O         1.809507         0.958862        -1.060574
 C         3.460174        -0.782502         0.236804
 O         2.221791        -1.141710        -0.205663
 H        -0.193983        -0.736395         0.890778
 H        -0.638025         0.499114        -0.297665
 H        -0.094497        -1.239311        -0.698929
 H         1.852625         1.973751         1.058379
 H         1.526356         0.684189         2.262892
 H         3.916578         0.249909         2.285649
 H         5.214312         0.466159        -0.314098
 H         3.159207         2.491307        -0.363845
 H         3.457253         1.673358        -2.044620
 H         4.090228        -1.663025         0.260418
