19
Iteration:  2546
 C        -0.031711        -0.306888        -0.130746
 C         1.459562         0.134963         0.057476
 C         1.949049         0.538276         1.417611
 C         3.448866         0.461618         1.304395
 C         4.051711         0.585555        -0.192637
 C         3.128444         1.243087        -1.220269
 O         1.791939         1.270671        -0.927732
 C         3.509580        -0.721004         0.331045
 O         2.291771        -1.099388        -0.189425
 H        -0.129760        -1.457539         0.056555
 H        -0.679334         0.325786         0.505091
 H        -0.410928        -0.056612        -1.089643
 H         1.695130         1.555781         1.678165
 H         1.536537        -0.231235         2.107793
 H         4.113191         0.556125         2.118337
 H         5.049272         0.840294        -0.422419
 H         3.494778         2.175949        -1.695332
 H         3.419615         0.515829        -2.154982
 H         4.192679        -1.553988         0.522655
