19
Iteration:  3905
 C        -0.035535        -0.148004        -0.152601
 C         1.397905         0.064990         0.022486
 C         1.951895         0.536671         1.423828
 C         3.465261         0.377445         1.247630
 C         3.997600         0.676070        -0.100738
 C         3.204962         1.389590        -1.087671
 O         1.785060         1.020893        -1.070124
 C         3.582118        -0.746542         0.210600
 O         2.256897        -1.114492        -0.093927
 H        -0.415206        -0.804596         0.577569
 H        -0.583234         0.802039        -0.025998
 H        -0.190323        -0.700681        -1.168818
 H         1.521888         1.569850         1.715126
 H         1.639003        -0.215212         2.165331
 H         4.161924         0.360409         2.104028
 H         4.980585         0.953006        -0.212435
 H         3.278471         2.526188        -1.029273
 H         3.543195         1.266285        -2.100367
 H         4.427258        -1.439689         0.385248
