19
Iteration:  1142
 C         0.053629        -0.291935        -0.050956
 C         1.491612         0.161417         0.095203
 C         1.976645         0.656547         1.471079
 C         3.439269         0.437695         1.251555
 C         3.936316         0.687300        -0.155119
 C         3.174333         1.277013        -1.235464
 O         1.818755         1.052135        -0.988707
 C         3.546296        -0.713498         0.230389
 O         2.190072        -1.076535        -0.190833
 H        -0.209091        -0.880925         0.744784
 H        -0.658444         0.501734        -0.263846
 H        -0.020272        -0.832068        -0.990605
 H         1.491804         1.576341         1.948523
 H         1.712087        -0.197062         2.205011
 H         3.890913         0.255110         2.243239
 H         5.021317         0.605572        -0.266960
 H         3.472573         2.325726        -1.663012
 H         3.293127         0.643145        -2.083505
 H         4.253251        -1.544808         0.268425
