19
Iteration:   233charge 0 multiplicity 1
 C         0.031184        -0.258913        -0.119678
 C         1.503727         0.097666         0.068612
 C         1.989814         0.713281         1.288613
 C         3.487384         0.416515         1.317662
 C         4.037756         0.639048        -0.119254
 C         3.094432         1.242223        -1.114256
 O         1.629256         1.029805        -0.998660
 C         3.574332        -0.777216         0.247158
 O         2.269585        -1.053337        -0.136631
 H        -0.383713        -1.116493         0.466961
 H        -0.425777         0.720339         0.066455
 H        -0.040065        -0.415579        -1.204194
 H         1.767364         1.748756         1.283766
 H         1.690783         0.164835         2.288416
 H         4.034626         0.685309         2.189029
 H         5.091176         0.779538        -0.205628
 H         3.381616         2.285003        -1.052202
 H         3.429935         0.889304        -2.094930
 H         4.249228        -1.610710         0.152782
