19
Iteration:  3942
 C        -0.004522        -0.198917        -0.170175
 C         1.488902         0.113558         0.033786
 C         1.913227         0.581458         1.358743
 C         3.406292         0.388039         1.263016
 C         3.941495         0.634236        -0.084665
 C         3.135858         1.166351        -1.164992
 O         1.736658         1.196330        -0.845453
 C         3.628202        -0.737569         0.304685
 O         2.351950        -1.070846        -0.287008
 H        -0.182527        -1.153161         0.423977
 H        -0.581722         0.644447         0.219879
 H        -0.282758        -0.303999        -1.184547
 H         1.477072         1.576318         1.462824
 H         1.633495        -0.035025         2.239242
 H         4.051939         0.478758         2.115129
 H         5.104953         1.026257        -0.180208
 H         3.412835         2.173698        -1.341268
 H         3.437496         0.476027        -2.004317
 H         4.204712        -1.623579         0.433938
