19
Iteration:  3690
 C        -0.037983        -0.081564        -0.082567
 C         1.508812        -0.002951        -0.015749
 C         1.984346         0.642544         1.355840
 C         3.449055         0.343905         1.278103
 C         3.951808         0.655690        -0.122750
 C         3.133911         1.537750        -1.022055
 O         1.816716         0.896290        -1.075182
 C         3.561594        -0.767610         0.219832
 O         2.251212        -1.189682        -0.155578
 H        -0.506252        -0.592870         0.683257
 H        -0.446395         0.928767        -0.231868
 H        -0.258751        -0.742133        -0.958508
 H         1.845828         1.676139         1.468773
 H         1.474166         0.093654         2.137061
 H         4.044941         0.511101         2.171172
 H         5.102523         0.779232        -0.070178
 H         2.906609         2.523195        -0.540411
 H         3.575493         1.621879        -2.026824
 H         4.364055        -1.425590         0.275338
