19
Iteration:  2121charge 0 multiplicity 1
 C         0.007922        -0.207019        -0.019444
 C         1.456777         0.050721         0.091251
 C         2.005052         0.722735         1.387165
 C         3.444552         0.407953         1.226925
 C         4.085126         0.652920        -0.189973
 C         3.144417         1.342428        -1.166308
 O         1.713904         0.966574        -1.017265
 C         3.537467        -0.742085         0.242409
 O         2.233056        -1.113638        -0.146224
 H        -0.101950        -1.133458         0.478290
 H        -0.666073         0.588966         0.312624
 H        -0.283504        -0.324773        -1.067623
 H         1.664777         1.811595         1.481993
 H         1.651725         0.217546         2.308551
 H         4.047000         0.395596         2.089080
 H         5.198830         0.793943        -0.309452
 H         3.380244         2.430340        -1.101086
 H         3.381564         1.099771        -2.285000
 H         4.203433        -1.635969         0.392907
