19
Iteration:  4585
 C         0.010210        -0.354423        -0.087259
 C         1.475939         0.175833         0.015346
 C         1.988289         0.592033         1.406730
 C         3.443733         0.329826         1.364068
 C         4.044886         0.670127        -0.057805
 C         3.123865         1.229910        -1.188552
 O         1.703786         1.237784        -0.929148
 C         3.539881        -0.790402         0.246947
 O         2.280976        -0.972698        -0.311311
 H        -0.209603        -1.015009         0.825301
 H        -0.750447         0.395091        -0.269729
 H         0.271376        -0.963288        -0.993879
 H         1.834578         1.645714         1.493875
 H         1.367799         0.036329         2.233071
 H         4.041196         0.044839         2.297388
 H         4.986919         0.909922        -0.245759
 H         3.384767         2.254657        -1.483606
 H         3.479644         0.576422        -2.031380
 H         4.119321        -1.717741         0.178063
