19
Iteration:  2518charge 0 multiplicity 1
 C        -0.049284        -0.061112        -0.139690
 C         1.473671         0.016031         0.132113
 C         1.951529         0.625927         1.407157
 C         3.411293         0.401821         1.206016
 C         4.009929         0.682991        -0.101107
 C         3.094601         1.307486        -1.111878
 O         1.778565         0.916977        -0.966699
 C         3.588135        -0.778764         0.246360
 O         2.352874        -1.112190        -0.220150
 H        -0.422674        -1.017228         0.113173
 H        -0.503209         0.635049         0.553434
 H        -0.407760         0.291646        -1.169507
 H         1.662246         1.691528         1.328351
 H         1.583529         0.168355         2.365317
 H         4.056577         0.673001         2.049089
 H         5.009956         1.216180        -0.227879
 H         3.166745         2.382907        -1.313773
 H         3.506007         0.962065        -2.011488
 H         4.296707        -1.599150         0.186641
