19
Iteration:  4378charge 0 multiplicity 1
 C        -0.038919        -0.277059        -0.106813
 C         1.429130         0.088103        -0.026320
 C         1.852666         0.485690         1.480156
 C         3.459899         0.476509         1.296529
 C         4.054046         0.654201        -0.126170
 C         3.190770         1.214577        -1.231765
 O         1.795707         1.182486        -0.903380
 C         3.647733        -0.711215         0.300862
 O         2.263338        -1.004820        -0.283220
 H        -0.340884        -0.902305         0.698145
 H        -0.723352         0.622527        -0.005035
 H        -0.336142        -0.748047        -1.098963
 H         1.490706         1.353393         1.977899
 H         1.573134        -0.457418         2.067559
 H         4.055923         0.599197         2.232363
 H         5.023951         0.786050        -0.259419
 H         3.393597         2.326323        -1.519801
 H         3.257046         0.599727        -2.106247
 H         4.327554        -1.553156         0.508396
