19
Iteration:  1965charge 0 multiplicity 1
 C         0.016279        -0.296262        -0.144537
 C         1.444632         0.023239         0.046513
 C         1.985524         0.603444         1.413841
 C         3.472249         0.463922         1.224921
 C         3.961194         0.589731        -0.233819
 C         3.136309         1.202199        -1.383049
 O         1.753088         1.343249        -0.767679
 C         3.584320        -0.762041         0.349246
 O         2.242694        -1.115486        -0.118430
 H        -0.394855        -0.998799         0.652902
 H        -0.572224         0.605891        -0.071800
 H        -0.026660        -0.843804        -1.090832
 H         1.624774         1.647899         1.563902
 H         1.586917        -0.052188         2.298626
 H         4.220869         0.709351         1.956314
 H         4.996534         0.878484        -0.301606
 H         3.545103         2.222787        -1.562670
 H         3.395612         0.536812        -2.320976
 H         4.287906        -1.605431         0.335298
