19
Iteration:   970
 C        -0.029262        -0.320827        -0.018247
 C         1.429836         0.158251         0.053477
 C         1.941607         0.633782         1.515552
 C         3.409166         0.498432         1.211021
 C         4.104984         0.570773        -0.180900
 C         3.223598         1.256955        -1.284591
 O         1.765728         1.110253        -0.980911
 C         3.510996        -0.746563         0.326667
 O         2.266923        -1.050712        -0.241791
 H        -0.191130        -0.970558         0.845982
 H        -0.667665         0.649367         0.086585
 H        -0.305119        -0.937225        -0.935824
 H         1.567370         1.529828         1.810684
 H         1.757587        -0.164245         2.233176
 H         4.081418         0.602958         2.082840
 H         5.148274         0.864212        -0.173954
 H         3.451176         2.336364        -1.399338
 H         3.232332         0.777194        -2.347763
 H         4.118658        -1.616487         0.430643
