19
Iteration:  2027charge 0 multiplicity 1
 C        -0.005349        -0.131460        -0.006928
 C         1.493089         0.125614         0.013843
 C         1.995661         0.601227         1.411734
 C         3.520953         0.328646         1.320886
 C         3.961973         0.680848        -0.104047
 C         3.124493         1.274218        -1.199940
 O         1.711782         1.028472        -1.108949
 C         3.597994        -0.682120         0.215753
 O         2.237539        -1.104966        -0.111774
 H        -0.214227        -0.773707         0.885645
 H        -0.699024         0.735112        -0.243565
 H        -0.156732        -0.784440        -0.815959
 H         1.838203         1.561953         1.800776
 H         1.527563        -0.119728         2.065155
 H         4.195207         0.311708         2.143755
 H         5.009920         1.054227        -0.246086
 H         3.095363         2.298977        -1.467284
 H         3.489917         0.800349        -2.073966
 H         4.262982        -1.595469         0.215654
