19
Iteration:  1810charge 0 multiplicity 1
 C        -0.126269        -0.241878        -0.062157
 C         1.470368         0.064450         0.013713
 C         1.940363         0.544104         1.410358
 C         3.506752         0.515738         1.181802
 C         4.090820         0.570165        -0.171206
 C         3.089358         1.240601        -1.312564
 O         1.777013         1.147460        -0.871742
 C         3.628565        -0.717925         0.364179
 O         2.262040        -1.060521        -0.191753
 H        -0.354328        -0.735399         0.860981
 H        -0.629720         0.779996        -0.162151
 H        -0.424981        -0.951872        -0.842999
 H         1.540682         1.545560         1.518865
 H         1.737718        -0.184567         2.317361
 H         4.137110         0.657342         2.103105
 H         5.145937         0.847340        -0.353249
 H         3.336823         2.331677        -1.272368
 H         3.221795         0.777243        -2.307891
 H         4.272633        -1.530586         0.613779
