19
Iteration:  1231charge 0 multiplicity 1
 C        -0.105468        -0.198916        -0.030876
 C         1.393276         0.182902        -0.025170
 C         2.034508         0.588738         1.366067
 C         3.536911         0.394595         1.330064
 C         4.038512         0.639894        -0.183613
 C         3.157574         1.487578        -1.129060
 O         1.762220         0.885620        -1.162698
 C         3.591684        -0.678984         0.273384
 O         2.228983        -1.167180        -0.060440
 H        -0.222503        -1.083832         0.539618
 H        -0.796214         0.598894         0.347547
 H        -0.356817        -0.433367        -1.021353
 H         1.778502         1.604405         1.563886
 H         1.614753        -0.098715         2.165687
 H         4.162377         0.382553         2.209545
 H         5.087029         0.742220        -0.165431
 H         3.004292         2.613201        -0.911831
 H         3.643696         1.363914        -2.089853
 H         4.267553        -1.552841         0.266480
