19
Iteration:  4254
 C        -0.122224        -0.155128        -0.090498
 C         1.482043         0.035978        -0.060390
 C         2.049159         0.723130         1.278770
 C         3.452709         0.325278         1.315617
 C         4.026415         0.626374        -0.043964
 C         3.100022         1.484366        -0.866128
 O         1.728924         0.876960        -1.168945
 C         3.651331        -0.780481         0.213799
 O         2.308337        -1.146923        -0.167402
 H        -0.667089        -0.626911         0.857360
 H        -0.627096         0.843626        -0.099640
 H        -0.472895        -0.792508        -0.925586
 H         1.934147         1.848356         1.065251
 H         1.488548         0.535437         2.205172
 H         4.174918         0.337807         2.151494
 H         5.158756         0.922194        -0.350852
 H         2.839422         2.541115        -0.296715
 H         3.364773         1.837131        -1.908913
 H         4.347956        -1.631535         0.259079
