19
Iteration:  4489
 C        -0.051691        -0.190328        -0.032081
 C         1.484113         0.024542        -0.083755
 C         1.958653         0.692643         1.330166
 C         3.466450         0.327803         1.284813
 C         4.078781         0.728729        -0.083675
 C         3.108226         1.454086        -1.018627
 O         1.777038         0.980647        -1.061098
 C         3.517942        -0.766849         0.248501
 O         2.274127        -1.171697        -0.219609
 H        -0.249071        -1.113672         0.623124
 H        -0.509766         0.626773         0.481145
 H        -0.404681        -0.342759        -1.037559
 H         1.740946         1.777106         1.364110
 H         1.598640         0.162182         2.194889
 H         3.995380         0.117344         2.254026
 H         5.116717         0.930367        -0.257868
 H         3.179394         2.470117        -0.586207
 H         3.531065         1.385178        -2.007561
 H         4.239436        -1.582918         0.259183
