19
Iteration:  3881
 C         0.045031        -0.261825        -0.104228
 C         1.440651         0.076600         0.012401
 C         2.000380         0.719744         1.327106
 C         3.465009         0.286516         1.306766
 C         4.021130         0.600210        -0.145962
 C         3.168200         1.587436        -0.990333
 O         1.797798         0.968831        -1.129588
 C         3.504091        -0.802868         0.261863
 O         2.195310        -1.128719        -0.147248
 H        -0.264762        -0.765235         0.864566
 H        -0.592344         0.615326        -0.155535
 H        -0.105143        -0.981248        -0.892119
 H         1.644244         1.747171         1.304454
 H         1.633875         0.223793         2.241879
 H         4.052385         0.370381         2.234930
 H         4.979649         0.679924        -0.355862
 H         2.990845         2.662432        -0.657224
 H         3.618200         1.745677        -1.949161
 H         4.225315        -1.590843         0.324543
