19
Iteration:  3047charge 0 multiplicity 1
 C        -0.045132        -0.334055        -0.029939
 C         1.487957         0.163724        -0.016212
 C         1.999881         0.716091         1.318127
 C         3.511136         0.238452         1.327914
 C         4.082520         0.633391        -0.135379
 C         3.103553         1.531803        -0.981565
 O         1.806261         0.943340        -1.205134
 C         3.524092        -0.757471         0.211685
 O         2.157069        -1.068359        -0.098532
 H        -0.061134        -1.104159         0.698580
 H        -0.782272         0.475861        -0.078773
 H         0.126817        -0.850802        -0.968684
 H         1.910387         1.786042         1.512405
 H         1.514947         0.280341         2.189781
 H         4.097165         0.351576         2.215127
 H         5.106239         0.762684        -0.275023
 H         3.046809         2.541859        -0.517092
 H         3.483908         1.815911        -1.940893
 H         3.979547        -1.740045         0.228980
