19
Iteration:   179
 C        -0.078473        -0.246891        -0.020310
 C         1.500652         0.078606        -0.021352
 C         2.019640         0.710271         1.356636
 C         3.510925         0.433784         1.234367
 C         3.951290         0.645204        -0.133788
 C         3.117327         1.412443        -1.044258
 O         1.817296         0.925470        -1.149898
 C         3.557806        -0.764718         0.213916
 O         2.205162        -1.125976        -0.069805
 H        -0.106061        -1.102354         0.748084
 H        -0.665606         0.652603         0.286721
 H        -0.319166        -0.577964        -1.047131
 H         1.703849         1.717198         1.417018
 H         1.588555         0.177724         2.307534
 H         4.205762         0.664281         2.000690
 H         5.002373         0.869851        -0.222906
 H         3.256866         2.463948        -0.678431
 H         3.621488         1.324818        -1.987159
 H         4.206773        -1.587324         0.211025
