19
Iteration:  3407
 C         0.031073        -0.278824        -0.200971
 C         1.437988         0.094627         0.062442
 C         1.922082         0.625232         1.425201
 C         3.411664         0.375708         1.242883
 C         4.023653         0.569562        -0.137971
 C         3.175483         1.389380        -1.179489
 O         1.760568         1.127843        -0.896751
 C         3.572740        -0.769399         0.289495
 O         2.269705        -1.079933        -0.225713
 H        -0.226319        -1.054081         0.590800
 H        -0.592619         0.596251         0.089872
 H        -0.221675        -0.669350        -1.173427
 H         1.734039         1.666665         1.581791
 H         1.640102        -0.030408         2.298398
 H         4.131199         0.494092         2.027224
 H         5.022474         0.676948        -0.188954
 H         3.489832         2.469302        -0.990497
 H         3.183632         1.215704        -2.260095
 H         4.263540        -1.578608         0.513277
