19
Iteration:  3266charge 0 multiplicity 1
 C         0.006937        -0.307581        -0.098525
 C         1.407625         0.123433        -0.057463
 C         2.040620         0.758045         1.322976
 C         3.530549         0.296045         1.250741
 C         4.087375         0.632345        -0.101634
 C         3.095681         1.577452        -0.940681
 O         1.795938         0.988756        -1.179862
 C         3.499563        -0.802535         0.279760
 O         2.186938        -1.159680        -0.097999
 H         0.095962        -1.261823         0.594082
 H        -0.623601         0.419706         0.447576
 H        -0.337096        -0.540557        -1.092771
 H         1.833522         1.790317         1.294413
 H         1.381674         0.253279         2.056135
 H         4.167184         0.270004         2.190726
 H         5.171691         0.439048        -0.149836
 H         2.966489         2.508911        -0.309201
 H         3.367112         1.877202        -1.973995
 H         4.037467        -1.724221         0.067816
