19
Iteration:  4027
 C        -0.040860        -0.137135        -0.173513
 C         1.489776         0.048732         0.020836
 C         1.962699         0.632227         1.373906
 C         3.498312         0.309398         1.309295
 C         3.949174         0.706983        -0.120497
 C         3.143571         1.461856        -1.011030
 O         1.778032         0.951060        -1.065029
 C         3.596077        -0.748689         0.216171
 O         2.272729        -1.190527        -0.149120
 H        -0.517592        -0.535494         0.762802
 H        -0.533674         0.864478        -0.145647
 H        -0.432874        -0.621088        -1.094915
 H         1.682570         1.722179         1.484043
 H         1.558638         0.118361         2.273559
 H         4.116211         0.453955         2.171239
 H         5.095713         0.775129        -0.109387
 H         3.047404         2.602307        -0.795740
 H         3.487759         1.302290        -2.059699
 H         4.308045        -1.516601         0.104086
