19
Iteration:  2078
 C        -0.007675        -0.282764        -0.005012
 C         1.464302         0.127695         0.037575
 C         2.067078         0.778778         1.278562
 C         3.531051         0.387309         1.198112
 C         4.098927         0.566664        -0.188905
 C         3.060629         1.463619        -0.996484
 O         1.775706         0.916493        -1.175003
 C         3.514711        -0.769805         0.253206
 O         2.159319        -1.148867        -0.032320
 H        -0.162831        -1.225781         0.441024
 H        -0.624450         0.530462         0.445906
 H        -0.309180        -0.294785        -1.079251
 H         2.001247         1.913002         1.291044
 H         1.614206         0.472816         2.212349
 H         4.067106         0.323438         2.117324
 H         5.154467         0.648606        -0.527903
 H         2.710155         2.352831        -0.475515
 H         3.387140         1.950674        -1.958692
 H         4.259117        -1.595965         0.469868
