19
Iteration:  1951charge 0 multiplicity 1
 C         0.019902        -0.258585        -0.165002
 C         1.482141         0.130628         0.164013
 C         1.959724         0.587877         1.514390
 C         3.462029         0.443741         1.229115
 C         4.015140         0.631706        -0.235173
 C         3.105133         1.224608        -1.275023
 O         1.771718         1.160427        -0.934892
 C         3.557267        -0.733027         0.243086
 O         2.263825        -1.073559        -0.128031
 H        -0.352310        -1.068646         0.472169
 H        -0.696348         0.648820        -0.073072
 H        -0.102592        -0.560709        -1.164191
 H         1.674430         1.587700         1.740886
 H         1.711790        -0.114416         2.376206
 H         4.125206         0.494193         2.063402
 H         5.135865         0.712175        -0.282838
 H         3.280226         2.252239        -1.550064
 H         3.027212         0.571054        -2.274878
 H         4.219455        -1.600495         0.547656
