19
Iteration:  3971charge 0 multiplicity 1
 C        -0.001106        -0.416290        -0.142521
 C         1.457517         0.192489         0.060440
 C         1.903316         0.589874         1.432042
 C         3.446325         0.330790         1.362964
 C         4.007164         0.646555        -0.099320
 C         3.223337         1.169417        -1.319362
 O         1.816713         1.269553        -0.871982
 C         3.525166        -0.693371         0.324470
 O         2.226314        -0.946567        -0.291682
 H         0.071767        -1.349748         0.335178
 H        -0.810176         0.124885         0.399886
 H        -0.171421        -0.842821        -1.242625
 H         1.559529         1.696022         1.509050
 H         1.562218        -0.088430         2.217556
 H         4.076849         0.274034         2.251966
 H         5.065280         0.709555        -0.136561
 H         3.530181         2.239501        -1.668757
 H         3.477873         0.582407        -2.226835
 H         4.014136        -1.699093         0.307851
