19
Iteration:  2378charge 0 multiplicity 1
 C        -0.168561        -0.217322        -0.065530
 C         1.435930         0.105966         0.030056
 C         1.931219         0.541023         1.443935
 C         3.432189         0.520189         1.198344
 C         4.067757         0.686500        -0.159879
 C         3.187289         1.115175        -1.211944
 O         1.759472         1.180068        -0.818118
 C         3.699917        -0.750402         0.306555
 O         2.301520        -1.083220        -0.307896
 H        -0.441094        -0.351018         0.917341
 H        -0.635887         0.651924        -0.470144
 H        -0.435115        -1.089180        -0.722428
 H         1.439101         1.490887         1.637684
 H         1.551734        -0.185151         2.107934
 H         4.058522         0.719331         1.996910
 H         5.131904         0.867955        -0.135341
 H         3.353198         2.105397        -1.735357
 H         3.345486         0.385531        -2.095869
 H         4.436965        -1.524507         0.568008
