19
Iteration:  3882
 C         0.044185        -0.259968        -0.102398
 C         1.442800         0.086031         0.008204
 C         2.003922         0.707439         1.322534
 C         3.463633         0.288419         1.310423
 C         4.021932         0.603227        -0.145242
 C         3.165527         1.585649        -0.997330
 O         1.798302         0.968218        -1.122400
 C         3.509808        -0.798025         0.260767
 O         2.191845        -1.133088        -0.141590
 H        -0.254508        -0.733892         0.841008
 H        -0.613676         0.611426        -0.152115
 H        -0.124160        -0.987658        -0.934896
 H         1.617020         1.759048         1.326536
 H         1.639157         0.203190         2.229021
 H         4.052556         0.401336         2.239511
 H         4.984860         0.685022        -0.344367
 H         2.982421         2.658862        -0.673494
 H         3.640979         1.725272        -1.939445
 H         4.217463        -1.619071         0.291742
