19
Iteration:   981
 C        -0.055833        -0.268361        -0.031212
 C         1.432224         0.142522        -0.038760
 C         1.980368         0.621054         1.473544
 C         3.517459         0.405478         1.257492
 C         3.970326         0.690338        -0.163769
 C         3.196388         1.228906        -1.218476
 O         1.763791         1.072562        -0.998286
 C         3.580246        -0.733213         0.268902
 O         2.233861        -1.047122        -0.172341
 H        -0.192003        -0.844189         0.876943
 H        -0.923808         0.547401        -0.014520
 H        -0.311394        -0.890399        -0.970538
 H         1.743496         1.537060         1.805751
 H         1.580980        -0.076549         2.220943
 H         4.253683         0.689453         2.031790
 H         5.031554         0.798249        -0.295454
 H         3.454156         2.302334        -1.285613
 H         3.583481         0.690626        -2.223220
 H         4.167804        -1.569291         0.557120
