19
Iteration:  2596charge 0 multiplicity 1
 C        -0.011930        -0.287542        -0.098024
 C         1.470511         0.045893        -0.008566
 C         1.987094         0.686009         1.383456
 C         3.444488         0.386467         1.305730
 C         4.020663         0.625674        -0.030763
 C         3.109285         1.219261        -1.217861
 O         1.688370         1.228021        -0.859871
 C         3.586123        -0.788082         0.282880
 O         2.306363        -1.060731        -0.321488
 H        -0.256436        -0.896032         0.742793
 H        -0.591529         0.653330        -0.123865
 H        -0.222160        -0.863475        -1.023072
 H         1.812374         1.810793         1.376044
 H         1.513842         0.224039         2.267388
 H         4.183366         0.292591         2.156902
 H         5.101357         0.765084        -0.273197
 H         3.403323         2.278206        -1.385297
 H         3.345387         0.620329        -2.049017
 H         4.322828        -1.579979         0.361096
