19
Iteration:  3007charge 0 multiplicity 1
 C         0.069796        -0.170012        -0.161276
 C         1.466788         0.051734         0.098348
 C         1.933524         0.600921         1.372911
 C         3.416621         0.429284         1.281233
 C         4.032513         0.618689        -0.179687
 C         3.108091         1.325294        -1.173344
 O         1.724276         1.120496        -0.871121
 C         3.601926        -0.786627         0.259210
 O         2.302406        -1.151683        -0.208786
 H        -0.476779        -0.667799         0.683439
 H        -0.505334         0.741557        -0.298822
 H        -0.151257        -0.739801        -0.987591
 H         1.555347         1.572779         1.327303
 H         1.382771        -0.006490         2.170429
 H         3.959034         0.559344         2.238077
 H         5.134276         0.928267        -0.330055
 H         3.209111         2.422203        -1.030714
 H         3.400408         1.099494        -2.242104
 H         4.323291        -1.618195         0.332875
