19
Iteration:   907
 C         0.049195        -0.242345        -0.141327
 C         1.481593         0.082541         0.071061
 C         2.002179         0.625797         1.450157
 C         3.495368         0.390122         1.307070
 C         4.005874         0.660518        -0.216518
 C         3.089094         1.209673        -1.216623
 O         1.740571         0.997695        -1.006590
 C         3.551078        -0.694450         0.286947
 O         2.224476        -0.972297        -0.115840
 H        -0.287903        -1.023016         0.454069
 H        -0.516282         0.629635         0.321984
 H        -0.300116        -0.312380        -1.152282
 H         1.710276         1.710820         1.626092
 H         1.571233         0.064900         2.291309
 H         4.249613         0.516410         2.092293
 H         5.051551         0.768723        -0.352576
 H         3.190488         2.319158        -1.401628
 H         3.512054         0.783863        -2.096709
 H         4.090614        -1.618939         0.238454
