19
Iteration:  4486
 C        -0.054050        -0.203142        -0.019066
 C         1.483133         0.018496        -0.084661
 C         1.965463         0.707076         1.295011
 C         3.476710         0.325001         1.264221
 C         4.079794         0.705138        -0.075239
 C         3.101781         1.462902        -0.998705
 O         1.790985         1.007528        -1.066623
 C         3.509405        -0.771402         0.237936
 O         2.269882        -1.172783        -0.206814
 H        -0.147991        -1.084324         0.597396
 H        -0.501534         0.652419         0.530319
 H        -0.502790        -0.456614        -1.056090
 H         1.675185         1.713739         1.271573
 H         1.583274         0.131490         2.215451
 H         4.021667         0.149707         2.253777
 H         5.059988         0.917673        -0.241316
 H         3.081776         2.451648        -0.540666
 H         3.558443         1.458042        -1.981479
 H         4.258873        -1.597076         0.430888
