19
Iteration:  2477charge 0 multiplicity 1
 C         0.043070        -0.282040         0.068085
 C         1.464705         0.149278        -0.092555
 C         1.965159         0.680999         1.268840
 C         3.474356         0.362783         1.211487
 C         3.956604         0.611412        -0.184337
 C         3.134049         1.552782        -0.940757
 O         1.841554         0.960537        -1.212724
 C         3.536181        -0.849757         0.289539
 O         2.176746        -1.113509        -0.058277
 H        -0.018868        -1.037791         0.755156
 H        -0.601255         0.596636         0.149914
 H        -0.212373        -0.752836        -0.914098
 H         1.912960         1.776506         1.471770
 H         1.501271         0.147523         2.085994
 H         4.129385         0.543797         2.127736
 H         5.071841         0.646694        -0.112880
 H         3.155251         2.552426        -0.522341
 H         3.563147         1.642406        -2.053020
 H         4.119560        -1.751817         0.443383
