19
Iteration:  2034
 C        -0.015276        -0.108406         0.007503
 C         1.488197         0.092138         0.029464
 C         2.007579         0.605286         1.358854
 C         3.527089         0.350645         1.290559
 C         3.961073         0.700004        -0.132876
 C         3.129643         1.319367        -1.188643
 O         1.718934         0.999073        -1.093306
 C         3.625086        -0.684239         0.249302
 O         2.224339        -1.179213        -0.115673
 H        -0.323269        -0.666318         0.853307
 H        -0.555573         0.851801         0.024405
 H        -0.184181        -0.769552        -0.915455
 H         1.595586         1.659644         1.526336
 H         1.478746        -0.035018         2.069168
 H         4.111712         0.178358         2.209954
 H         4.978108         1.083707        -0.289882
 H         3.303051         2.473741        -1.103021
 H         3.414767         1.023068        -2.249357
 H         4.214210        -1.592578         0.394801
