19
Iteration:  2456
 C         0.010546        -0.338304        -0.040007
 C         1.406043         0.070374         0.030081
 C         2.011220         0.895363         1.312665
 C         3.467146         0.384433         1.259906
 C         4.094959         0.551605        -0.235473
 C         3.134031         1.485659        -0.927265
 O         1.815445         0.959297        -1.063248
 C         3.455433        -0.784375         0.235406
 O         2.220517        -1.146483        -0.202399
 H        -0.173776        -0.762066         0.925782
 H        -0.664065         0.516946        -0.257906
 H        -0.086742        -1.240593        -0.683937
 H         1.826847         1.970553         1.057681
 H         1.508870         0.656163         2.240377
 H         3.936967         0.275896         2.299286
 H         5.213162         0.490413        -0.309869
 H         3.138521         2.485107        -0.306724
 H         3.476171         1.697919        -2.056939
 H         4.101990        -1.651985         0.260010
