19
Iteration:  1027
 C        -0.067089        -0.197139        -0.035617
 C         1.454907         0.077875         0.058070
 C         2.025915         0.719005         1.321455
 C         3.495814         0.461326         1.233773
 C         3.971241         0.554129        -0.183431
 C         3.070307         1.390342        -1.050172
 O         1.824487         0.933271        -1.054813
 C         3.552578        -0.773143         0.298269
 O         2.277722        -1.139730        -0.181598
 H        -0.391072        -0.836632         0.798422
 H        -0.696530         0.762710         0.012930
 H        -0.333852        -0.666741        -0.973018
 H         1.741669         1.741626         1.200985
 H         1.592429         0.400977         2.216123
 H         4.206302         0.514959         2.077953
 H         4.978395         0.906122        -0.296740
 H         3.304313         2.404336        -0.645415
 H         3.348496         1.417273        -2.171446
 H         4.378343        -1.514765         0.400050
