19
Iteration:   737charge 0 multiplicity 1
 C        -0.039329        -0.306759        -0.020972
 C         1.503202         0.129788        -0.011338
 C         1.928712         0.699676         1.434700
 C         3.463340         0.355055         1.347131
 C         4.061592         0.698402        -0.150430
 C         3.177477         1.132136        -1.326375
 O         1.749125         1.116084        -0.965966
 C         3.560473        -0.728730         0.306201
 O         2.243835        -1.011615        -0.205868
 H        -0.055685        -1.227201         0.674053
 H        -0.657254         0.543376         0.476757
 H        -0.429426        -0.607901        -1.006002
 H         1.895965         1.705094         1.425147
 H         1.290838         0.342269         2.274259
 H         4.174126         0.422447         2.185170
 H         5.083409         0.955519        -0.165678
 H         3.184176         2.176471        -1.746666
 H         3.327988         0.446782        -2.173300
 H         4.239724        -1.549772         0.406871
