19
Iteration:  1201charge 0 multiplicity 1
 C         0.058299        -0.238843        -0.063413
 C         1.442648         0.097112         0.029461
 C         1.985528         0.635475         1.426737
 C         3.454928         0.431170         1.258165
 C         4.018935         0.624292        -0.173662
 C         3.173377         1.387490        -1.203575
 O         1.765878         1.007079        -1.011335
 C         3.587831        -0.709631         0.271980
 O         2.177626        -1.120304        -0.171828
 H        -0.149594        -1.006729         0.775744
 H        -0.653998         0.562736         0.190975
 H        -0.245952        -0.770297        -0.976540
 H         1.680361         1.665189         1.418463
 H         1.537052         0.099806         2.383891
 H         4.067661         0.434230         2.152093
 H         5.074099         0.871339        -0.042774
 H         3.192335         2.480497        -1.144633
 H         3.450707         1.014859        -2.192340
 H         4.098808        -1.638202         0.361476
