19
Iteration:  4705charge 0 multiplicity 1
 C        -0.086705        -0.323696        -0.012617
 C         1.477013         0.076707        -0.042648
 C         1.975250         0.666329         1.319126
 C         3.415137         0.350079         1.251329
 C         4.041406         0.624454        -0.178608
 C         3.195528         1.436136        -1.001219
 O         1.801070         1.093831        -0.980041
 C         3.553344        -0.773411         0.233273
 O         2.253446        -1.117768        -0.232882
 H        -0.199408        -1.152162         0.781605
 H        -0.679827         0.574979         0.262756
 H        -0.374765        -0.529664        -1.002654
 H         1.751432         1.684148         1.419083
 H         1.428633         0.198879         2.186467
 H         3.980941         0.526949         2.154841
 H         5.142466         0.751611        -0.357048
 H         3.364002         2.481725        -0.802015
 H         3.506050         1.433928        -2.075852
 H         4.164066        -1.642942         0.558167
