19
Iteration:  4242
 C        -0.100604        -0.231625        -0.054779
 C         1.415494         0.074567        -0.024214
 C         1.959090         0.759922         1.252745
 C         3.509010         0.335782         1.288140
 C         4.063032         0.605533        -0.127758
 C         3.113959         1.471175        -0.886322
 O         1.786183         0.936611        -1.103689
 C         3.548763        -0.737132         0.214264
 O         2.308658        -1.160807        -0.186908
 H        -0.321497        -0.750834         0.941757
 H        -0.575909         0.706978        -0.307137
 H        -0.281643        -0.886439        -0.932956
 H         1.693695         1.878638         1.330124
 H         1.494197         0.243776         2.072758
 H         3.890036         0.450822         2.334370
 H         5.230197         0.690441        -0.293150
 H         3.143623         2.550322        -0.307698
 H         3.648280         1.536376        -1.856033
 H         4.264048        -1.554752         0.262819
