19
Iteration:  3884charge 0 multiplicity 1
 C         0.037449        -0.257656        -0.099613
 C         1.453751         0.106992        -0.001877
 C         2.008707         0.682050         1.313910
 C         3.462627         0.296046         1.314687
 C         4.013602         0.610361        -0.140171
 C         3.156067         1.578895        -1.007693
 O         1.800371         0.967754        -1.107448
 C         3.520744        -0.785684         0.258087
 O         2.185816        -1.142770        -0.129863
 H        -0.236924        -0.686723         0.802035
 H        -0.654338         0.607542        -0.158779
 H        -0.161386        -0.977047        -1.004163
 H         1.592102         1.768347         1.379005
 H         1.628353         0.160390         2.199759
 H         4.049907         0.455802         2.233228
 H         5.109311         0.700875        -0.330269
 H         2.979288         2.626066        -0.689212
 H         3.687725         1.670571        -1.960283
 H         4.197338        -1.678475         0.222611
