19
Iteration:  1584
 C        -0.028594        -0.237610        -0.131255
 C         1.473317        -0.008121         0.021866
 C         1.993070         0.623729         1.411376
 C         3.424528         0.415298         1.256810
 C         4.078086         0.663402        -0.166987
 C         3.109057         1.125097        -1.256998
 O         1.656292         1.270348        -0.867875
 C         3.644968        -0.704055         0.353891
 O         2.306436        -1.084205        -0.179855
 H        -0.335388        -1.026799         0.492586
 H        -0.585026         0.699786         0.143849
 H        -0.182370        -0.410060        -1.187910
 H         1.486089         1.570735         1.556055
 H         1.702574        -0.102328         2.194718
 H         4.124159         0.714647         2.070830
 H         5.070138         1.036329        -0.401173
 H         3.371371         2.003923        -1.814698
 H         3.115834         0.218722        -1.991990
 H         4.302032        -1.580907         0.393393
