19
Iteration:  4186
 C        -0.030684        -0.244676        -0.257452
 C         1.429977         0.072346        -0.001705
 C         1.951751         0.592783         1.399668
 C         3.499668         0.373249         1.318350
 C         4.066808         0.668823        -0.087654
 C         3.127719         1.176285        -1.194768
 O         1.709444         1.151748        -0.843712
 C         3.596791        -0.694346         0.307642
 O         2.310407        -1.018082        -0.211462
 H        -0.338745        -1.003232         0.389980
 H        -0.682369         0.584616        -0.085236
 H        -0.078468        -0.599592        -1.330552
 H         1.609196         1.639972         1.495363
 H         1.558770         0.003176         2.195883
 H         3.968156         0.419222         2.301156
 H         5.067761         0.917918        -0.205774
 H         3.292606         2.312088        -1.540320
 H         3.341113         0.537846        -2.046900
 H         4.049080        -1.650043         0.455303
