19
Iteration:  1486charge 0 multiplicity 1
 C        -0.030968        -0.237670         0.031141
 C         1.443114         0.078093         0.007923
 C         1.986017         0.743552         1.325385
 C         3.513785         0.427579         1.187542
 C         4.006132         0.596578        -0.244743
 C         3.103295         1.512835        -0.941083
 O         1.873945         0.834999        -1.152770
 C         3.512447        -0.695944         0.248087
 O         2.190055        -1.174247        -0.111795
 H        -0.133780        -0.727316         0.955612
 H        -0.556789         0.710075        -0.025299
 H        -0.233391        -0.882415        -0.830639
 H         1.621399         1.789407         1.473955
 H         1.641530         0.036737         2.128203
 H         4.137976         0.528247         2.048027
 H         5.034268         0.825564        -0.310432
 H         3.139267         2.475147        -0.444157
 H         3.465289         1.677725        -1.981890
 H         4.259961        -1.490864         0.388145
