19
Iteration:  4867charge 0 multiplicity 1
 C         0.005093        -0.107261        -0.072893
 C         1.468541         0.072618        -0.046783
 C         1.967038         0.666718         1.377532
 C         3.455287         0.404166         1.253318
 C         3.997309         0.567211        -0.202217
 C         3.037504         1.532857        -0.895223
 O         1.823755         0.911986        -1.085817
 C         3.603154        -0.791161         0.172680
 O         2.291503        -1.227367        -0.188094
 H        -0.376587        -0.922571         0.654837
 H        -0.388445         0.763226         0.444965
 H        -0.486542        -0.150178        -1.003070
 H         1.683432         1.667960         1.496366
 H         1.316409         0.093055         2.154956
 H         4.076958         0.538579         2.115195
 H         5.166911         0.751071        -0.398773
 H         2.937381         2.448906        -0.251944
 H         3.352425         1.939945        -1.841666
 H         4.278918        -1.614742         0.510716
