19
Iteration:   507
 C         0.023595        -0.334449         0.018576
 C         1.433337         0.129897        -0.040068
 C         1.959606         0.762107         1.411322
 C         3.434170         0.396464         1.456738
 C         4.061787         0.610239        -0.136479
 C         3.176197         1.134027        -1.184051
 O         1.654082         1.107134        -1.040245
 C         3.630860        -0.728793         0.266875
 O         2.296195        -0.971096        -0.304585
 H        -0.234687        -0.969028         0.833053
 H        -0.689810         0.510183         0.085154
 H        -0.370209        -0.948127        -0.847509
 H         1.789476         1.794402         1.569459
 H         1.381839         0.212092         2.296298
 H         4.165973         0.350422         2.243114
 H         5.174542         0.807201        -0.233636
 H         3.350761         2.177532        -1.535757
 H         3.210704         0.505175        -2.086029
 H         4.189132        -1.613765         0.222526
