19
Iteration:  3133
 C         0.097983        -0.261898        -0.167572
 C         1.460408         0.090363         0.056025
 C         1.960523         0.559517         1.483031
 C         3.434429         0.359981         1.286800
 C         4.004626         0.703376        -0.129235
 C         3.174910         1.270626        -1.224711
 O         1.708806         1.180398        -0.941056
 C         3.540989        -0.734446         0.263699
 O         2.266739        -1.051354        -0.188769
 H        -0.224350        -1.201252         0.303528
 H        -0.727244         0.453339         0.063888
 H         0.006214        -0.599134        -1.245145
 H         1.573320         1.604552         1.660493
 H         1.636903         0.000426         2.345715
 H         3.960739         0.083232         2.169349
 H         4.996132         0.935671        -0.251687
 H         3.483931         2.368995        -1.360404
 H         3.364524         0.767946        -2.200703
 H         4.040858        -1.691490         0.328411
