19
Iteration:   922
 C        -0.070637        -0.236095        -0.109142
 C         1.400379         0.163467         0.116038
 C         2.032207         0.689728         1.454604
 C         3.519459         0.346645         1.281748
 C         4.038861         0.682248        -0.091240
 C         3.131881         1.208133        -1.309683
 O         1.654333         1.102234        -1.002145
 C         3.619111        -0.735898         0.245887
 O         2.287496        -1.106030        -0.125442
 H        -0.324536        -1.289832         0.223807
 H        -0.834401         0.468521         0.044058
 H         0.067907        -0.415273        -1.183127
 H         1.850856         1.855821         1.514966
 H         1.546990         0.131018         2.310676
 H         4.123815         0.345826         2.187169
 H         5.136394         0.945521        -0.228005
 H         3.438197         2.224482        -1.561744
 H         3.271428         0.536586        -2.209543
 H         4.400625        -1.529312         0.439273
