19
Iteration:  1977
 C         0.014031        -0.334934        -0.132353
 C         1.478188         0.102737         0.065795
 C         1.900662         0.653706         1.294968
 C         3.481646         0.479902         1.165116
 C         4.010513         0.590072        -0.217938
 C         3.164564         1.128346        -1.272046
 O         1.738775         1.347783        -0.689727
 C         3.589283        -0.805736         0.340782
 O         2.283574        -1.104038        -0.189638
 H        -0.147353        -0.817815         0.887475
 H        -0.612886         0.493050        -0.299149
 H        -0.378872        -1.058870        -0.924305
 H         1.616034         1.758930         1.441731
 H         1.706890         0.024149         2.256599
 H         4.007691         0.702179         2.130650
 H         5.048390         0.695669        -0.376964
 H         3.378027         2.221940        -1.524750
 H         2.914681         0.585817        -2.292670
 H         4.252308        -1.636910         0.396586
