19
Iteration:  3153
 C        -0.043686        -0.381516        -0.191601
 C         1.466752         0.146133         0.032185
 C         1.901218         0.638990         1.356183
 C         3.485079         0.412350         1.289033
 C         4.021830         0.601245        -0.160945
 C         3.142689         1.220195        -1.168184
 O         1.752024         1.246332        -0.748784
 C         3.649601        -0.775611         0.306443
 O         2.292702        -1.029913        -0.311691
 H        -0.387090        -1.151263         0.541044
 H        -0.860849         0.435162         0.010768
 H        -0.293705        -0.868044        -1.272145
 H         1.751067         1.805907         1.500912
 H         1.489612         0.110491         2.227172
 H         4.025327         0.683352         2.154638
 H         5.057937         0.699885        -0.034474
 H         3.376648         2.270332        -1.368449
 H         3.302484         0.568591        -2.103503
 H         4.151846        -1.720827         0.306939
