19
Iteration:  1527charge 0 multiplicity 1
 C        -0.053773        -0.274677        -0.058632
 C         1.453282         0.130501         0.010143
 C         2.063339         0.747446         1.372529
 C         3.513156         0.364411         1.329108
 C         3.971749         0.660340        -0.104768
 C         3.127340         1.280485        -1.158385
 O         1.676373         1.059113        -1.010820
 C         3.597015        -0.750293         0.248804
 O         2.301955        -1.097330        -0.166857
 H        -0.328694        -1.108281         0.619685
 H        -0.858790         0.430354        -0.077762
 H        -0.230196        -0.824803        -1.050989
 H         1.802841         1.746551         1.373354
 H         1.509660         0.263084         2.228091
 H         4.307284         0.350200         2.020666
 H         4.982304         0.841677        -0.417076
 H         3.232766         2.397788        -1.203440
 H         3.438971         0.864808        -2.196203
 H         4.231650        -1.618105         0.433489
