19
Iteration:  4815
 C        -0.016789        -0.320019        -0.106677
 C         1.407881         0.118910         0.076498
 C         1.974826         0.632929         1.445394
 C         3.444431         0.331875         1.233501
 C         4.018060         0.608918        -0.126247
 C         3.217188         1.366395        -1.111034
 O         1.747254         1.130894        -0.980884
 C         3.521569        -0.716362         0.227470
 O         2.270481        -1.053711        -0.237183
 H        -0.193911        -1.156905         0.710380
 H        -0.754683         0.445786         0.210685
 H        -0.136126        -0.766042        -1.022012
 H         1.724967         1.695802         1.535568
 H         1.449951        -0.097549         2.106265
 H         4.072482         0.189011         2.091618
 H         5.220782         0.711990        -0.159039
 H         3.494897         2.487825        -1.092843
 H         3.557422         1.102681        -2.158608
 H         4.277009        -1.485704         0.147673
