19
Iteration:   786charge 0 multiplicity 1
 C        -0.022111        -0.187902        -0.037813
 C         1.496478         0.007495         0.078603
 C         1.949957         0.685300         1.352413
 C         3.427098         0.449368         1.189829
 C         4.061673         0.565055        -0.248110
 C         3.139218         1.420344        -1.214695
 O         1.770068         1.001631        -1.002124
 C         3.541466        -0.797600         0.338160
 O         2.256360        -1.155236        -0.134734
 H        -0.395173        -0.806919         0.754984
 H        -0.444426         0.784634         0.054427
 H        -0.305160        -0.586677        -1.038163
 H         1.659635         1.848427         1.504793
 H         1.831422         0.255828         2.389272
 H         4.114319         0.651380         2.006448
 H         5.117896         0.919492        -0.051653
 H         3.318725         2.474940        -0.966715
 H         3.212951         1.391064        -2.290533
 H         4.147505        -1.564819         0.868824
