19
Iteration:  2998
 C         0.006452        -0.183293        -0.168924
 C         1.481548         0.061881         0.043185
 C         1.905664         0.549648         1.378858
 C         3.433259         0.381037         1.227297
 C         3.969471         0.646772        -0.149515
 C         3.098064         1.295576        -1.209127
 O         1.722018         1.131925        -0.841983
 C         3.657671        -0.758241         0.339913
 O         2.332725        -1.081731        -0.213343
 H        -0.454777        -0.649636         0.746882
 H        -0.195538         0.861820        -0.239354
 H        -0.181461        -0.671128        -1.112447
 H         1.569581         1.594117         1.467641
 H         1.540100         0.040865         2.282040
 H         4.028335         0.429316         2.167999
 H         5.098337         0.728376        -0.087963
 H         3.427239         2.332106        -1.353929
 H         3.129257         0.849736        -2.261353
 H         4.343457        -1.611513         0.288666
