19
Iteration:  3960
 C         0.002516        -0.406069        -0.113304
 C         1.388550         0.117873        -0.010225
 C         1.908271         0.587067         1.415059
 C         3.419731         0.328943         1.327867
 C         4.126249         0.646710        -0.045469
 C         3.193602         1.188389        -1.298872
 O         1.771255         1.336727        -0.899045
 C         3.567096        -0.739196         0.292669
 O         2.252548        -1.003722        -0.250145
 H        -0.063463        -1.303757         0.414392
 H        -0.732003         0.365778         0.208305
 H        -0.288742        -0.368275        -1.258444
 H         1.568556         1.662506         1.688222
 H         1.472825        -0.000004         2.241652
 H         4.101146         0.393688         2.181625
 H         5.147688         0.884258        -0.032633
 H         3.417040         2.234567        -1.738154
 H         3.232043         0.347461        -1.979499
 H         4.298448        -1.587997         0.399105
