19
Iteration:  3752charge 0 multiplicity 1
 C         0.084170        -0.352669        -0.146940
 C         1.464469         0.141257         0.051128
 C         1.890826         0.636309         1.431084
 C         3.347556         0.372048         1.304313
 C         4.064854         0.610925        -0.125492
 C         3.164572         1.162153        -1.260997
 O         1.785865         1.255537        -0.838435
 C         3.577349        -0.703422         0.275076
 O         2.235656        -0.988572        -0.260610
 H         0.125319        -1.314754         0.466613
 H        -0.741968         0.321037         0.095876
 H        -0.001314        -0.608879        -1.211606
 H         1.687595         1.735553         1.739484
 H         1.354161        -0.075719         2.063602
 H         4.084628         0.123297         2.082118
 H         5.076798         0.754960        -0.183325
 H         3.359961         2.202172        -1.512329
 H         3.383417         0.529256        -2.154475
 H         4.006765        -1.693060         0.413960
