19
Iteration:  4336charge 0 multiplicity 1
 C         0.103202        -0.336814        -0.156238
 C         1.509798         0.123723         0.008863
 C         1.979695         0.732432         1.394337
 C         3.391296         0.375175         1.340140
 C         3.997978         0.576878        -0.075281
 C         3.090679         1.222358        -1.101394
 O         1.710442         1.179751        -0.880386
 C         3.556045        -0.761663         0.248223
 O         2.286253        -1.058659        -0.319185
 H         0.102020        -1.264107         0.333589
 H        -0.577036         0.389341         0.310865
 H        -0.211492        -0.404231        -1.232014
 H         1.684202         1.763112         1.288163
 H         1.484331         0.337258         2.308681
 H         4.097390         0.538655         2.219392
 H         4.938056         0.922055        -0.250352
 H         3.404331         2.306792        -1.302127
 H         3.325242         0.665358        -2.077153
 H         4.066577        -1.745227         0.241769
