19
Iteration:  2191charge 0 multiplicity 1
 C        -0.017104        -0.318321        -0.181207
 C         1.405099         0.188820         0.105496
 C         2.055337         0.695340         1.511466
 C         3.541557         0.375250         1.286526
 C         3.996416         0.647816        -0.142420
 C         3.126511         1.126686        -1.248038
 O         1.695738         1.126501        -0.890474
 C         3.590465        -0.725056         0.243255
 O         2.226831        -0.979734        -0.230586
 H        -0.434842        -0.790522         0.776182
 H        -0.717986         0.402401        -0.641060
 H         0.017337        -1.147818        -0.923351
 H         1.816612         1.714589         1.593523
 H         1.732775         0.161939         2.389975
 H         4.195295         0.264321         2.248875
 H         5.084836         0.835303        -0.155777
 H         3.336998         2.101724        -1.737180
 H         3.395402         0.418879        -2.033119
 H         4.234594        -1.555824         0.072367
