19
Iteration:  3088
 C        -0.056826        -0.157135        -0.024263
 C         1.440753         0.015577         0.022721
 C         1.963991         0.592282         1.272719
 C         3.462156         0.391458         1.256631
 C         4.088140         0.602145        -0.095010
 C         3.124408         1.517934        -1.015575
 O         1.776695         0.947408        -1.071848
 C         3.621352        -0.750065         0.286075
 O         2.249269        -1.157454        -0.221746
 H        -0.526618        -0.966372         0.548718
 H        -0.426169         0.852932         0.382364
 H        -0.461109        -0.393458        -1.120751
 H         1.580655         1.704088         1.253006
 H         1.318920         0.224415         2.029143
 H         4.125639         0.338078         2.081523
 H         5.129887         0.791804        -0.184813
 H         3.003373         2.609944        -0.668774
 H         3.495017         1.651718        -2.078062
 H         4.427321        -1.385650         0.558868
