19
Iteration:  3432
 C        -0.018735        -0.180750        -0.105942
 C         1.429568         0.130863         0.047880
 C         1.977861         0.576116         1.384022
 C         3.501423         0.366996         1.303095
 C         3.990463         0.711931        -0.020554
 C         3.173354         1.485654        -1.087549
 O         1.813673         0.910663        -1.131411
 C         3.524613        -0.755064         0.195598
 O         2.218292        -1.131242        -0.113881
 H        -0.376435        -1.056545         0.365393
 H        -0.601363         0.696535         0.265035
 H        -0.193720        -0.274064        -1.227121
 H         1.681325         1.556197         1.656488
 H         1.644331        -0.202735         2.067342
 H         4.195994         0.249473         2.148688
 H         5.083019         0.766842        -0.480737
 H         3.214587         2.519512        -0.839547
 H         3.410822         1.443009        -2.184058
 H         4.292715        -1.575755         0.105128
