19
Iteration:  4543
 C        -0.024105        -0.272745        -0.162721
 C         1.441126         0.076414         0.061777
 C         1.927459         0.512939         1.362148
 C         3.469302         0.434326         1.266086
 C         4.081309         0.620595        -0.126738
 C         3.155549         1.304711        -1.232023
 O         1.742790         1.239848        -0.816237
 C         3.558514        -0.725922         0.278483
 O         2.292719        -1.096410        -0.232457
 H        -0.310860        -1.136958         0.577805
 H        -0.763922         0.531218        -0.086758
 H        -0.122327        -0.576391        -1.198607
 H         1.390785         1.440979         1.641353
 H         1.670210        -0.212761         2.192979
 H         4.046759         0.711083         2.173885
 H         5.138020         0.587710        -0.237263
 H         3.444798         2.342852        -1.451961
 H         3.270150         0.833155        -2.228966
 H         4.166703        -1.583797         0.585289
