19
Iteration:   378
 C         0.044198        -0.319146         0.104204
 C         1.448345         0.161277        -0.079996
 C         1.963181         0.787605         1.281341
 C         3.378050         0.388170         1.224436
 C         4.048182         0.579548        -0.159911
 C         3.148576         1.401469        -1.037778
 O         1.801867         0.953919        -1.122455
 C         3.521382        -0.782804         0.346640
 O         2.246557        -1.095902        -0.195814
 H         0.055909        -1.100270         0.840912
 H        -0.419791         0.623674         0.532627
 H        -0.399209        -0.710794        -0.863008
 H         1.626591         1.829545         1.342423
 H         1.382791         0.171972         2.048202
 H         3.974408         0.350947         2.130260
 H         5.129988         0.725297        -0.331362
 H         3.239443         2.438366        -0.712569
 H         3.577259         1.478497        -2.095031
 H         4.240025        -1.506858         0.590763
