19
Iteration:  1668
 C        -0.034862        -0.210419         0.051498
 C         1.487732         0.065952         0.104518
 C         2.020354         0.777619         1.343358
 C         3.490915         0.378090         1.286047
 C         4.017029         0.627251        -0.202227
 C         3.073244         1.506628        -1.033402
 O         1.785239         0.865905        -1.188879
 C         3.540842        -0.808445         0.237388
 O         2.249986        -1.165135        -0.193757
 H        -0.408971        -0.714937         0.940666
 H        -0.540701         0.800035        -0.159321
 H        -0.190577        -0.884503        -0.890137
 H         1.680453         1.736720         1.007220
 H         1.563087         0.537236         2.346381
 H         4.095555         0.466129         2.227587
 H         5.069792         0.836125        -0.255458
 H         2.951008         2.506892        -0.489074
 H         3.601780         1.692073        -1.929436
 H         4.279034        -1.615909         0.416665
