19
Iteration:  2491
 C        -0.030886        -0.187439        -0.054656
 C         1.497142         0.086558        -0.016616
 C         2.019535         0.635366         1.338734
 C         3.499163         0.329107         1.317942
 C         4.064114         0.631880        -0.089904
 C         3.113313         1.501936        -1.106477
 O         1.772682         0.945463        -1.230023
 C         3.511458        -0.740021         0.306480
 O         2.219238        -1.133237        -0.072599
 H        -0.150831        -1.047282         0.712714
 H        -0.534697         0.622850         0.543295
 H        -0.565842        -0.363793        -0.966625
 H         1.625255         1.638500         1.511863
 H         1.554670        -0.036338         2.081172
 H         4.061893         0.314660         2.277089
 H         5.052604         0.793508        -0.418224
 H         2.943759         2.598719        -0.745454
 H         3.640854         1.569107        -2.135240
 H         4.223775        -1.554460         0.176842
