19
Iteration:  4994
 C         0.026796        -0.192098        -0.241996
 C         1.400655         0.176681         0.076596
 C         1.988976         0.440442         1.465432
 C         3.545566         0.345905         1.341631
 C         3.979639         0.656984        -0.097939
 C         3.063685         1.229350        -1.203728
 O         1.697689         1.175888        -0.878083
 C         3.617591        -0.716363         0.218700
 O         2.310655        -1.057283        -0.241898
 H        -0.390233        -0.879976         0.471101
 H        -0.544863         0.715471        -0.165483
 H        -0.246320        -0.503211        -1.332646
 H         1.752287         1.594707         1.730733
 H         1.528499        -0.103509         2.269312
 H         4.180104         0.571928         2.185741
 H         4.961006         0.740747        -0.221980
 H         3.301101         2.337510        -1.516119
 H         3.287819         0.480052        -2.015574
 H         4.368230        -1.510240         0.363404
