19
Iteration:  3635charge 0 multiplicity 1
 C         0.012170        -0.228824        -0.089456
 C         1.496194         0.014628         0.026248
 C         1.942553         0.747690         1.332748
 C         3.508631         0.342481         1.243701
 C         4.008645         0.585665        -0.134490
 C         3.139891         1.493008        -0.961476
 O         1.797404         1.020073        -1.092893
 C         3.507903        -0.793414         0.250708
 O         2.205900        -1.175455        -0.161918
 H        -0.132637        -1.089424         0.458211
 H        -0.747680         0.537687         0.114116
 H        -0.176967        -0.541192        -1.178052
 H         1.838033         1.803532         1.232446
 H         1.381335         0.465084         2.213856
 H         4.033723         0.550557         2.216632
 H         5.125562         0.833474        -0.282439
 H         3.124591         2.669605        -0.614090
 H         3.696626         1.589896        -1.919450
 H         4.217527        -1.652140         0.365211
