19
Iteration:  3310
 C        -0.024509        -0.167071        -0.112916
 C         1.497276         0.040802         0.018345
 C         1.932895         0.611898         1.364378
 C         3.443824         0.398630         1.279526
 C         4.026528         0.632201        -0.142427
 C         3.159531         1.419350        -1.093501
 O         1.748074         1.035399        -0.959397
 C         3.628916        -0.743019         0.256974
 O         2.253783        -1.197764        -0.220072
 H        -0.447926        -1.006724         0.560153
 H        -0.568042         0.775979         0.098643
 H        -0.327039        -0.360085        -1.126126
 H         1.730397         1.665456         1.361296
 H         1.571708         0.155295         2.322296
 H         3.936062         0.563260         2.238025
 H         5.100892         0.883067        -0.365078
 H         3.107167         2.386757        -0.809086
 H         3.443700         1.404103        -2.168973
 H         4.258534        -1.565233         0.462414
