19
Iteration:  3910
 C        -0.039846        -0.148352        -0.178275
 C         1.422974         0.052541         0.065897
 C         1.938246         0.539673         1.456584
 C         3.438330         0.369321         1.264854
 C         4.000905         0.664606        -0.121137
 C         3.200847         1.404040        -1.134174
 O         1.762277         1.021492        -1.056511
 C         3.602323        -0.719194         0.234243
 O         2.274734        -1.112219        -0.132390
 H        -0.483478        -0.817744         0.636721
 H        -0.541758         0.813729        -0.048824
 H        -0.239203        -0.482575        -1.161543
 H         1.448835         1.455302         1.696554
 H         1.734624        -0.166820         2.288699
 H         4.113729         0.336290         2.099144
 H         5.162713         0.968674        -0.262414
 H         3.253045         2.469285        -1.035079
 H         3.701221         1.078549        -2.134276
 H         4.297454        -1.530597         0.434411
