19
Iteration:   220
 C        -0.007030        -0.201784        -0.160994
 C         1.442918         0.041732         0.066762
 C         2.023566         0.666119         1.426931
 C         3.504702         0.498306         1.228281
 C         3.921628         0.561781        -0.160551
 C         3.121941         1.367815        -1.140124
 O         1.758385         1.014497        -1.022498
 C         3.611004        -0.773733         0.298445
 O         2.258658        -1.128213        -0.110257
 H        -0.352434        -1.055214         0.387333
 H        -0.633499         0.555463         0.148056
 H        -0.174919        -0.415931        -1.163644
 H         1.702132         1.749302         1.441451
 H         1.514590         0.207462         2.294928
 H         4.247984         0.673822         1.980373
 H         4.984150         0.808904        -0.290695
 H         3.143774         2.420433        -1.006171
 H         3.432004         1.179885        -2.221557
 H         4.245579        -1.606542         0.400561
