19
Iteration:  1294charge 0 multiplicity 1
 C        -0.002340        -0.342807        -0.014846
 C         1.457215         0.139321         0.008094
 C         2.069160         0.666009         1.340078
 C         3.528646         0.399283         1.245158
 C         4.044681         0.629934        -0.120138
 C         3.173010         1.484715        -1.049618
 O         1.758710         0.953937        -1.180657
 C         3.460749        -0.761217         0.231242
 O         2.141986        -1.065383        -0.070569
 H        -0.192465        -1.035544         0.784188
 H        -0.762315         0.522991         0.023576
 H        -0.095345        -0.887130        -0.954138
 H         1.818553         1.724272         1.638009
 H         1.657639         0.005112         2.063634
 H         4.205678         0.291619         2.073923
 H         5.066148         0.953379        -0.178161
 H         3.155178         2.521816        -0.893738
 H         3.531073         1.251861        -2.092584
 H         4.232743        -1.522234         0.418633
