19
Iteration:  2843charge 0 multiplicity 1
 C        -0.136136        -0.154876        -0.018116
 C         1.509604         0.066477         0.014536
 C         1.988319         0.716223         1.310474
 C         3.458030         0.390887         1.238350
 C         4.014694         0.590782        -0.124715
 C         3.092975         1.515404        -0.949363
 O         1.791249         0.866453        -1.049349
 C         3.632775        -0.759081         0.247278
 O         2.303253        -1.168644        -0.264321
 H        -0.652135        -0.482553         0.826270
 H        -0.603166         0.801074        -0.370067
 H        -0.383486        -0.823822        -0.856148
 H         1.818333         1.732488         1.148788
 H         1.450298         0.377965         2.187262
 H         4.104774         0.292127         2.141209
 H         5.092990         0.581863        -0.205839
 H         3.022435         2.536712        -0.464342
 H         3.502096         1.738568        -1.898074
 H         4.224369        -1.694829         0.430367
