19
Iteration:  2570
 C         0.074571        -0.436103        -0.084389
 C         1.423771         0.220415         0.045366
 C         1.923851         0.643493         1.487829
 C         3.368481         0.387741         1.289985
 C         4.090973         0.562639        -0.118010
 C         3.182678         1.129204        -1.309850
 O         1.773126         1.221873        -0.849188
 C         3.526502        -0.750599         0.250019
 O         2.215515        -0.898196        -0.262121
 H         0.193237        -1.475143         0.349012
 H        -0.750607         0.186288         0.273995
 H        -0.142244        -0.535074        -1.196958
 H         1.891669         1.686114         1.762151
 H         1.370036        -0.070586         2.120730
 H         4.139304         0.500899         2.003937
 H         5.114255         0.954139        -0.085639
 H         3.517274         2.213363        -1.610332
 H         3.466876         0.604208        -2.335739
 H         4.092873        -1.682036         0.322819
