19
Iteration:  4831charge 0 multiplicity 1
 C        -0.098994        -0.284612        -0.044594
 C         1.451658         0.140962        -0.061795
 C         2.012446         0.611515         1.375764
 C         3.517741         0.274199         1.331129
 C         4.058393         0.712397        -0.020916
 C         3.146979         1.446785        -1.083222
 O         1.769814         1.025418        -1.047004
 C         3.610316        -0.762088         0.126764
 O         2.189812        -1.087861        -0.180815
 H        -0.185937        -1.120219         0.549537
 H        -0.682707         0.627081         0.173123
 H        -0.420507        -0.554948        -1.173358
 H         1.850720         1.720969         1.577542
 H         1.592668         0.151368         2.261255
 H         4.136148         0.367971         2.253332
 H         5.013205         0.925094        -0.191308
 H         3.073839         2.472020        -0.938415
 H         3.520433         1.076925        -2.028996
 H         4.171850        -1.711369         0.229736
