19
Iteration:  1641charge 0 multiplicity 1
 C        -0.023351        -0.305510        -0.008147
 C         1.475035         0.131428        -0.000001
 C         2.028102         0.637890         1.237183
 C         3.461634         0.434369         1.247603
 C         4.032151         0.565689        -0.219443
 C         3.145254         1.418232        -1.126707
 O         1.747050         1.078357        -1.026870
 C         3.518841        -0.776522         0.303951
 O         2.228971        -1.092091        -0.068071
 H        -0.109391        -0.918641         0.915800
 H        -0.714028         0.518957         0.074456
 H        -0.062960        -1.031053        -0.753110
 H         1.477359         1.661253         1.356836
 H         1.764459        -0.005243         2.070904
 H         3.906566         0.548085         2.264983
 H         5.144525         0.662294        -0.366761
 H         3.300288         2.469426        -0.930393
 H         3.599373         1.256629        -2.172797
 H         4.228658        -1.579854         0.391775
