19
Iteration:  3227
 C        -0.023463        -0.147592        -0.119469
 C         1.506616         0.054726        -0.002384
 C         1.920112         0.625086         1.388411
 C         3.469886         0.367308         1.288706
 C         4.095149         0.652876        -0.105135
 C         3.123051         1.474790        -1.081724
 O         1.721494         0.941381        -0.983752
 C         3.540506        -0.796776         0.248012
 O         2.277465        -1.138191        -0.233425
 H        -0.428672        -0.751042         0.627950
 H        -0.492767         0.825996         0.055497
 H        -0.304595        -0.604679        -1.085560
 H         1.536581         1.705692         1.442591
 H         1.704249         0.116040         2.317436
 H         4.114105         0.420118         2.118891
 H         5.232720         0.919583        -0.124135
 H         3.032549         2.531153        -0.896606
 H         3.535311         1.341856        -2.083235
 H         4.310470        -1.504468         0.250676
