19
Iteration:  1730
 C        -0.013259        -0.238781        -0.071450
 C         1.465965         0.069622         0.009561
 C         1.962490         0.666505         1.383492
 C         3.534113         0.521967         1.181975
 C         4.029240         0.538995        -0.267232
 C         3.165003         1.389798        -1.119794
 O         1.767632         0.983656        -0.961466
 C         3.505882        -0.726606         0.342038
 O         2.253354        -1.126357        -0.130695
 H        -0.339251        -1.105726         0.514033
 H        -0.491248         0.504653         0.465918
 H        -0.441985        -0.424820        -1.080871
 H         1.419114         1.667130         1.433681
 H         1.679033         0.008038         2.228634
 H         4.128572         0.712279         2.032772
 H         5.055670         0.726050        -0.503520
 H         3.234428         2.453318        -0.888473
 H         3.319144         1.333767        -2.244417
 H         4.117402        -1.627036         0.562017
