19
Iteration:  3742
 C         0.036010        -0.406790        -0.152606
 C         1.446191         0.194037        -0.020740
 C         1.890873         0.599774         1.490190
 C         3.474940         0.358311         1.266646
 C         4.058674         0.621886        -0.108411
 C         3.200473         1.230725        -1.207107
 O         1.791891         1.222863        -0.905272
 C         3.511091        -0.766322         0.301267
 O         2.207898        -0.958893        -0.258000
 H        -0.079591        -1.209082         0.578635
 H        -0.741636         0.297817         0.136567
 H        -0.058101        -0.801134        -1.178995
 H         1.571403         1.688106         1.658854
 H         1.514315         0.056869         2.337144
 H         4.069395         0.320995         2.204838
 H         5.109948         0.785415        -0.218354
 H         3.422411         2.212640        -1.511946
 H         3.338834         0.624006        -2.138988
 H         4.241933        -1.537389         0.462276
