19
Iteration:  4843charge 0 multiplicity 1
 C         0.002541        -0.173957        -0.050637
 C         1.458580         0.039924         0.042965
 C         2.036355         0.611059         1.337709
 C         3.513754         0.279198         1.304070
 C         4.016347         0.699176        -0.057903
 C         3.084352         1.509424        -1.031311
 O         1.765422         0.958026        -1.116151
 C         3.570034        -0.756710         0.232653
 O         2.201885        -1.125051        -0.223573
 H        -0.328134        -0.961047         0.568929
 H        -0.526420         0.657039         0.406848
 H        -0.362038        -0.369398        -1.138933
 H         1.886364         1.690423         1.318840
 H         1.366950         0.137780         2.074541
 H         4.136127         0.303719         2.208714
 H         5.029155         0.901820        -0.069530
 H         3.114684         2.568468        -0.844805
 H         3.523088         1.485496        -2.013018
 H         4.305545        -1.621065         0.137147
