19
Iteration:  2300charge 0 multiplicity 1
 C        -0.056864        -0.189326         0.012898
 C         1.441416        -0.002851        -0.013257
 C         1.981446         0.717866         1.303668
 C         3.496969         0.458452         1.194372
 C         4.043567         0.585155        -0.250532
 C         3.160823         1.515103        -1.047993
 O         1.811790         0.957162        -1.065686
 C         3.510721        -0.788896         0.316932
 O         2.262791        -1.222435        -0.101201
 H        -0.467199        -1.139308         0.378913
 H        -0.492002         0.546933         0.640045
 H        -0.309333         0.085931        -0.958481
 H         1.554617         1.691613         1.177975
 H         1.519096         0.307303         2.183513
 H         4.212393         0.638272         2.043699
 H         5.104562         0.764883        -0.387236
 H         2.952259         2.462344        -0.537850
 H         3.441886         1.624330        -2.114533
 H         4.164145        -1.670858         0.594719
