19
Iteration:  4356charge 0 multiplicity 1
 C         0.031633        -0.363687        -0.114351
 C         1.434290         0.150799         0.075788
 C         1.923957         0.630093         1.419464
 C         3.428963         0.276391         1.297492
 C         4.020541         0.711340        -0.023884
 C         3.162087         1.148691        -1.293661
 O         1.746666         1.234054        -0.903994
 C         3.559631        -0.734695         0.285423
 O         2.311308        -0.973155        -0.296881
 H        -0.113455        -1.241397         0.483238
 H        -0.792508         0.367906         0.173638
 H        -0.108853        -0.560284        -1.225633
 H         1.788360         1.682862         1.521407
 H         1.388601         0.092745         2.277668
 H         4.090305         0.255025         2.168049
 H         4.983174         0.921851         0.037484
 H         3.531683         2.202213        -1.638774
 H         3.099233         0.465734        -2.115226
 H         4.279774        -1.548448         0.327155
