19
Iteration:  3793
 C        -0.069101        -0.153487        -0.218403
 C         1.447488         0.057650         0.046171
 C         1.955918         0.526635         1.399271
 C         3.475806         0.408793         1.319587
 C         4.090883         0.670291        -0.105932
 C         3.126623         1.198885        -1.204514
 O         1.732001         1.106970        -0.906427
 C         3.582375        -0.678039         0.295884
 O         2.318143        -1.074839        -0.231275
 H        -0.548849        -1.054841         0.364694
 H        -0.584631         0.739657         0.202873
 H        -0.167036        -0.143899        -1.272404
 H         1.374982         1.416120         1.737933
 H         1.718617        -0.239755         2.204309
 H         3.935335         0.463545         2.299453
 H         5.051434         0.979240        -0.177457
 H         3.426271         2.312364        -1.395023
 H         3.248488         0.799512        -2.198951
 H         4.233427        -1.526201         0.601681
