19
Iteration:  3359
 C         0.020431        -0.288478        -0.116055
 C         1.497977         0.150707         0.118277
 C         1.863015         0.544520         1.521244
 C         3.415832         0.301768         1.304168
 C         3.996209         0.685040        -0.092193
 C         3.200957         1.181645        -1.263953
 O         1.803389         1.166421        -0.904733
 C         3.519734        -0.684872         0.238341
 O         2.286568        -0.962094        -0.330270
 H        -0.412287        -0.861959         0.680318
 H        -0.729238         0.452234        -0.375621
 H         0.106994        -1.019544        -0.955774
 H         1.734803         1.666251         1.755884
 H         1.505156        -0.179125         2.233942
 H         4.170701         0.315487         2.136552
 H         5.088351         1.047677        -0.040341
 H         3.301361         2.305133        -1.713324
 H         3.236003         0.530718        -2.140167
 H         4.196218        -1.571483         0.211904
