19
Iteration:    61
 C        -0.002326        -0.212809        -0.088413
 C         1.490347        -0.058369         0.071015
 C         1.951066         0.765015         1.362210
 C         3.472736         0.362857         1.288510
 C         4.083418         0.700256        -0.152810
 C         3.107396         1.252827        -1.230651
 O         1.682593         1.078976        -0.917732
 C         3.581023        -0.681135         0.348338
 O         2.300382        -1.147951        -0.239123
 H        -0.518400        -0.994748         0.659487
 H        -0.538267         0.797690         0.048707
 H        -0.230406        -0.449500        -1.179237
 H         1.745965         1.837735         1.036403
 H         1.508491         0.453669         2.323605
 H         4.074866         0.225082         2.165835
 H         5.157790         0.774084        -0.174741
 H         3.217289         2.361676        -1.390194
 H         3.338065         0.748446        -2.181135
 H         4.121006        -1.570253         0.574367
