19
Iteration:  1524
 C        -0.054561        -0.261349        -0.068502
 C         1.462816         0.147768         0.002700
 C         2.071045         0.754259         1.330835
 C         3.511035         0.329872         1.355319
 C         3.956483         0.664390        -0.130197
 C         3.110602         1.300225        -1.130285
 O         1.672158         1.038554        -1.014919
 C         3.615431        -0.742533         0.274032
 O         2.298972        -1.122670        -0.170509
 H        -0.376582        -1.096268         0.642601
 H        -0.897017         0.427450        -0.070853
 H        -0.232478        -0.843614        -1.007753
 H         1.838931         1.851562         1.378688
 H         1.608113         0.333499         2.218553
 H         4.340206         0.427474         2.092391
 H         5.038398         0.846408        -0.398635
 H         3.303985         2.425058        -1.166601
 H         3.299156         0.906875        -2.116827
 H         4.270529        -1.616730         0.339643
