19
Iteration:   388charge 0 multiplicity 1
 C        -0.001849        -0.257814         0.080704
 C         1.503391         0.117262        -0.014087
 C         1.981210         0.808210         1.222085
 C         3.442365         0.333259         1.306839
 C         4.063964         0.700691        -0.106019
 C         3.162132         1.463768        -1.094782
 O         1.757875         0.926149        -1.125615
 C         3.491879        -0.802077         0.352893
 O         2.260474        -1.169742        -0.247876
 H         0.030578        -1.041188         0.794067
 H        -0.754848         0.406819         0.514259
 H        -0.516754        -0.730300        -0.779110
 H         2.042099         1.859880         1.221908
 H         1.495129         0.506942         2.219432
 H         3.878342         0.274111         2.306014
 H         5.151134         0.788104        -0.226590
 H         2.962271         2.481538        -0.852318
 H         3.534027         1.329333        -2.191107
 H         3.976325        -1.715778         0.534624
