19
Iteration:  2321
 C        -0.060768        -0.333548        -0.086822
 C         1.446263         0.167128         0.036039
 C         2.013086         0.675743         1.387663
 C         3.482297         0.462876         1.167777
 C         4.072710         0.542926        -0.215062
 C         3.200910         1.369098        -1.121744
 O         1.764560         1.063260        -1.012407
 C         3.556366        -0.735267         0.288670
 O         2.180589        -1.079802        -0.078020
 H        -0.117215        -1.341657         0.369200
 H        -0.805604         0.236774         0.433381
 H        -0.355914        -0.470871        -1.064224
 H         1.718372         1.699589         1.551080
 H         1.647645         0.025833         2.203079
 H         3.985236         0.430232         2.166183
 H         5.154700         0.632160        -0.283812
 H         3.243401         2.433773        -0.915220
 H         3.447960         1.086750        -2.197990
 H         4.234076        -1.623065         0.255222
