19
Iteration:    21
 C         0.011495        -0.378041         0.041819
 C         1.419258         0.151962        -0.008797
 C         1.963926         0.587806         1.473594
 C         3.460288         0.422780         1.306963
 C         4.098018         0.580158        -0.140562
 C         3.242762         1.387436        -1.322362
 O         1.761525         1.109218        -1.207668
 C         3.464177        -0.734894         0.403150
 O         2.202104        -1.014625        -0.128181
 H         0.062249        -1.070528         0.740968
 H        -0.643490         0.410434         0.307990
 H        -0.314097        -0.784161        -0.872918
 H         1.521948         1.616332         1.814648
 H         1.659498        -0.254956         2.055050
 H         4.135701         0.346244         2.119811
 H         5.115753         0.735376        -0.354578
 H         3.369871         2.437656        -1.270953
 H         3.511642         1.045726        -2.377813
 H         4.047234        -1.566765         0.707897
