19
Iteration:  2427charge 0 multiplicity 1
 C        -0.041545        -0.233833        -0.153504
 C         1.424270         0.133854         0.058632
 C         2.069351         0.697437         1.378478
 C         3.527245         0.315918         1.291570
 C         3.998933         0.681833        -0.124826
 C         3.092020         1.315968        -1.129067
 O         1.692860         1.057051        -1.040691
 C         3.585110        -0.806108         0.260529
 O         2.283424        -1.107739        -0.134572
 H        -0.472875        -0.383136         0.935242
 H        -0.590117         0.465312        -0.856641
 H        -0.038658        -1.195451        -0.647402
 H         1.909164         1.782554         1.488691
 H         1.541411         0.193187         2.234079
 H         4.116933         0.538640         2.227767
 H         5.035536         0.911618         0.006830
 H         3.254249         2.400300        -1.059593
 H         3.383082         1.189203        -2.128237
 H         4.180825        -1.727741         0.169829
