19
Iteration:  1650
 C         0.039603        -0.266516         0.033670
 C         1.485524         0.072312        -0.088446
 C         1.971696         0.735690         1.282249
 C         3.460571         0.409912         1.170530
 C         3.995019         0.558200        -0.224927
 C         3.154525         1.434346        -1.036269
 O         1.757616         1.010452        -1.035798
 C         3.546263        -0.747594         0.299674
 O         2.245049        -1.132445        -0.090655
 H        -0.028164        -0.769351         0.993227
 H        -0.749557         0.517169        -0.120682
 H        -0.381712        -0.910724        -0.704751
 H         1.754220         1.822916         1.531326
 H         1.565345         0.102280         2.056865
 H         3.960260         0.590531         2.200922
 H         5.116726         0.646613        -0.248569
 H         3.183804         2.437078        -0.624415
 H         3.356281         1.423516        -2.145165
 H         4.149592        -1.641403         0.388798
