19
Iteration:   350charge 0 multiplicity 1
 C        -0.065674        -0.292359        -0.110350
 C         1.403231         0.098695         0.043129
 C         2.039963         0.678672         1.418438
 C         3.496418         0.478829         1.240386
 C         4.034467         0.622067        -0.150450
 C         3.186014         1.447091        -1.191267
 O         1.780671         0.993182        -1.077740
 C         3.548196        -0.810426         0.321088
 O         2.192531        -1.148750        -0.072333
 H        -0.248497        -1.130121         0.611198
 H        -0.626663         0.608527         0.064172
 H        -0.190073        -0.561593        -1.143615
 H         1.635782         1.726933         1.464159
 H         1.595845         0.112952         2.166495
 H         4.101508         0.695727         2.120099
 H         5.095738         0.704752        -0.391548
 H         3.288225         2.537032        -0.939991
 H         3.557855         1.363569        -2.196607
 H         4.310897        -1.618644         0.345505
