19
Iteration:  1909
 C        -0.026793        -0.177542         0.085385
 C         1.447913         0.079380        -0.006801
 C         1.975152         0.727874         1.315664
 C         3.435432         0.338328         1.232902
 C         3.991364         0.620055        -0.120997
 C         3.188915         1.454599        -1.152939
 O         1.717362         0.996986        -1.096460
 C         3.581342        -0.757433         0.271313
 O         2.313519        -1.213431        -0.144355
 H         0.013398        -1.087586         0.729116
 H        -0.439588         0.748442         0.567118
 H        -0.490221        -0.255242        -0.834347
 H         1.735474         1.772948         1.230717
 H         1.380429         0.321015         2.234984
 H         3.928243         0.285471         2.156777
 H         5.056774         0.701922        -0.437761
 H         3.164405         2.543771        -0.982934
 H         3.613073         1.270052        -2.204967
 H         4.230413        -1.642358         0.443381
