19
Iteration:   417
 C        -0.006454        -0.207973        -0.087190
 C         1.477605         0.073733         0.029725
 C         1.988322         0.773728         1.341053
 C         3.477470         0.336736         1.286482
 C         3.993941         0.645341        -0.129801
 C         3.084192         1.332730        -1.073341
 O         1.742093         0.903406        -1.104351
 C         3.595282        -0.723790         0.216902
 O         2.277288        -1.087326        -0.080092
 H        -0.277006        -0.911207         0.783417
 H        -0.561775         0.713079         0.068719
 H        -0.314426        -0.509354        -1.088643
 H         1.950516         1.910349         1.425183
 H         1.442997         0.273272         2.201935
 H         4.037014         0.338748         2.246246
 H         5.005262         0.904786        -0.428196
 H         3.102734         2.451943        -0.796031
 H         3.508839         1.274229        -2.097019
 H         4.277839        -1.651230         0.176625
