19
Iteration:  4684charge 0 multiplicity 1
 C         0.067909        -0.349068        -0.074759
 C         1.454707         0.145109        -0.000145
 C         2.036712         0.736755         1.390795
 C         3.469446         0.343754         1.265145
 C         4.034657         0.603804        -0.092647
 C         3.127746         1.552520        -0.965848
 O         1.780880         0.926739        -1.109599
 C         3.477221        -0.808503         0.191350
 O         2.165230        -1.089172        -0.191553
 H         0.058038        -1.322567         0.607381
 H        -0.524125         0.521306         0.282665
 H        -0.210401        -0.379951        -1.081093
 H         1.845079         1.816244         1.285466
 H         1.502941         0.532241         2.349019
 H         4.051248         0.141313         2.139532
 H         5.179845         0.652148        -0.157525
 H         3.174603         2.531928        -0.526176
 H         3.439404         1.696692        -2.042296
 H         4.126800        -1.662708        -0.061999
