19
Iteration:  3403
 C         0.007570        -0.308165        -0.172581
 C         1.424731         0.104388         0.040950
 C         1.936299         0.624336         1.413419
 C         3.408780         0.387404         1.266367
 C         4.013149         0.582739        -0.151562
 C         3.171727         1.370170        -1.196059
 O         1.744820         1.175422        -0.864949
 C         3.564857        -0.815569         0.309438
 O         2.312466        -1.082951        -0.235779
 H        -0.300563        -1.063125         0.559415
 H        -0.583313         0.595375        -0.054484
 H        -0.182687        -0.650161        -1.197113
 H         1.653078         1.755152         1.515026
 H         1.586612         0.040818         2.265275
 H         4.128391         0.461194         2.106991
 H         5.154286         0.637564        -0.343230
 H         3.546506         2.489398        -0.990177
 H         3.311532         1.170085        -2.279662
 H         4.248427        -1.630437         0.461448
