19
Iteration:  4153
 C         0.030748        -0.172276        -0.162063
 C         1.467068         0.081129         0.022760
 C         1.803033         0.512009         1.437906
 C         3.341940         0.446895         1.365163
 C         3.989729         0.637788        -0.150162
 C         3.167302         1.097815        -1.315518
 O         1.817981         1.212035        -0.800288
 C         3.613919        -0.668271         0.308855
 O         2.375497        -1.069575        -0.282517
 H        -0.147542        -1.069394         0.331919
 H        -0.540834         0.647761         0.226234
 H        -0.306634        -0.357223        -1.205314
 H         1.423832         1.500049         1.678312
 H         1.500867        -0.156500         2.202483
 H         4.045303         0.624253         2.179525
 H         4.952134         0.903374        -0.186208
 H         3.312274         2.177767        -1.686951
 H         3.288676         0.425353        -2.162093
 H         4.223329        -1.561353         0.417206
