19
Iteration:  1287
 C        -0.064872        -0.347878        -0.018942
 C         1.443262         0.133571        -0.071020
 C         2.054666         0.728874         1.308174
 C         3.548780         0.379013         1.218082
 C         4.071589         0.659493        -0.113645
 C         3.126707         1.459315        -1.035373
 O         1.768793         0.967324        -1.120999
 C         3.514372        -0.790394         0.271953
 O         2.173153        -1.103398        -0.084022
 H        -0.217451        -1.064100         0.796605
 H        -0.589499         0.594802         0.030487
 H        -0.271281        -0.775341        -0.979244
 H         1.819563         1.725816         1.570350
 H         1.694777         0.235912         2.323202
 H         4.200957         0.274734         2.092544
 H         5.124274         0.914304        -0.325018
 H         2.888548         2.573466        -0.834416
 H         3.671477         1.364431        -1.973981
 H         4.077074        -1.707489         0.411491
