19
Iteration:  3692charge 0 multiplicity 1
 C        -0.025149        -0.081068        -0.102220
 C         1.505579        -0.011011        -0.006660
 C         1.984075         0.644005         1.347484
 C         3.434047         0.341239         1.282821
 C         3.960431         0.657399        -0.135585
 C         3.137737         1.525684        -1.025952
 O         1.808482         0.906896        -1.059667
 C         3.549561        -0.762420         0.223080
 O         2.267905        -1.185895        -0.158131
 H        -0.486571        -0.589569         0.800188
 H        -0.449418         0.951276        -0.177759
 H        -0.250726        -0.778016        -0.980780
 H         1.853066         1.691858         1.505322
 H         1.403695         0.084394         2.165137
 H         4.039961         0.509143         2.141560
 H         5.145718         0.785846        -0.090174
 H         2.876770         2.580847        -0.561458
 H         3.588229         1.585469        -2.041152
 H         4.309930        -1.510285         0.271074
