19
Iteration:  3261
 C        -0.000400        -0.314912        -0.077760
 C         1.458006         0.104643        -0.059044
 C         2.008615         0.755549         1.323989
 C         3.526739         0.295493         1.249832
 C         4.058205         0.581307        -0.138313
 C         3.132450         1.601157        -0.918885
 O         1.785977         0.993323        -1.165163
 C         3.514782        -0.798049         0.275606
 O         2.206040        -1.159318        -0.103538
 H        -0.048360        -1.172063         0.557243
 H        -0.634576         0.514359         0.304542
 H        -0.526260        -0.480481        -1.073605
 H         1.638682         1.866973         1.220376
 H         1.469386         0.314998         2.183922
 H         4.122831         0.337519         2.134050
 H         5.161961         0.546535        -0.135887
 H         2.800906         2.498559        -0.399965
 H         3.475256         1.863489        -1.915237
 H         4.097414        -1.716453         0.101111
