19
Iteration:  4555
 C        -0.024229        -0.347935        -0.153650
 C         1.456494         0.054296         0.005894
 C         1.909019         0.592643         1.433581
 C         3.394955         0.480749         1.220361
 C         4.001949         0.585117        -0.178926
 C         3.155305         1.223167        -1.183452
 O         1.828055         1.274261        -0.762511
 C         3.583574        -0.789116         0.304831
 O         2.299393        -1.017363        -0.300464
 H        -0.320770        -1.140080         0.672921
 H        -0.646506         0.544495        -0.039352
 H        -0.113027        -0.902598        -1.046883
 H         1.603490         1.700648         1.445827
 H         1.576244        -0.021406         2.275069
 H         4.058927         0.454833         2.055160
 H         5.066011         1.028949        -0.238955
 H         3.435291         2.291058        -1.139254
 H         3.249147         0.709587        -2.159616
 H         4.136100        -1.725348         0.350175
