19
Iteration:  4162
 C         0.004190        -0.181366        -0.156767
 C         1.496828         0.034705         0.016704
 C         1.844892         0.589600         1.520706
 C         3.348200         0.457054         1.253268
 C         3.961429         0.673207        -0.118165
 C         3.151564         1.065257        -1.275619
 O         1.793860         1.200804        -0.773231
 C         3.626768        -0.703164         0.352846
 O         2.377539        -1.081427        -0.366638
 H        -0.466773        -1.034263         0.206342
 H        -0.527192         0.716842         0.124044
 H        -0.022172        -0.303229        -1.232618
 H         1.397414         1.533274         1.509368
 H         1.475688        -0.015117         2.347097
 H         3.884481         0.624818         2.181295
 H         4.956644         0.949802        -0.140858
 H         3.565224         2.177981        -1.593297
 H         3.237868         0.407388        -2.110287
 H         4.360796        -1.559454         0.384662
