19
Iteration:  2678
 C        -0.018698        -0.204576        -0.083419
 C         1.476157         0.016503         0.015924
 C         2.017058         0.823796         1.255630
 C         3.416677         0.221630         1.333378
 C         4.050513         0.543572        -0.199468
 C         3.107239         1.539703        -0.896089
 O         1.718111         0.965084        -1.120840
 C         3.577862        -0.753241         0.243245
 O         2.261884        -1.186459        -0.170605
 H        -0.249217        -0.681354         0.882290
 H        -0.567185         0.747108        -0.087499
 H        -0.235041        -0.980374        -0.898061
 H         1.951294         1.916274         1.196396
 H         1.623298         0.677225         2.291308
 H         4.162371         0.290155         2.096531
 H         5.103903         0.840553        -0.354436
 H         3.074465         2.647272        -0.474441
 H         3.421155         1.960522        -1.896401
 H         4.316132        -1.514417         0.417750
