19
Iteration:  3978charge 0 multiplicity 1
 C         0.032442        -0.405829        -0.142589
 C         1.487690         0.186248         0.043714
 C         1.928294         0.610813         1.475644
 C         3.399120         0.399062         1.326313
 C         3.966322         0.633093        -0.127576
 C         3.218975         1.177823        -1.245671
 O         1.847098         1.204927        -0.877435
 C         3.478546        -0.744357         0.275236
 O         2.247555        -0.918238        -0.300774
 H         0.108653        -1.365576         0.452322
 H        -0.875900         0.042973         0.270734
 H        -0.136468        -0.728793        -1.168132
 H         1.739872         1.635649         1.687859
 H         1.356095        -0.038159         2.150759
 H         4.011042         0.369729         2.258906
 H         5.037156         0.675118        -0.233126
 H         3.593845         2.220437        -1.392468
 H         3.255803         0.652701        -2.247168
 H         4.066391        -1.687152         0.360491
