19
Iteration:  4458
 C         0.027324        -0.347389         0.018644
 C         1.485877         0.117981        -0.047497
 C         1.935999         0.779348         1.340062
 C         3.455055         0.306419         1.246110
 C         4.015398         0.544475        -0.196584
 C         3.181099         1.551308        -0.932514
 O         1.826421         1.004627        -1.143628
 C         3.448449        -0.822897         0.286615
 O         2.234486        -1.108373        -0.193331
 H         0.024650        -1.235045         0.755084
 H        -0.658672         0.456595         0.129519
 H        -0.155371        -0.890634        -0.867113
 H         1.684098         1.943236         1.397401
 H         1.484189         0.317630         2.171929
 H         3.977926         0.481715         2.197864
 H         5.219320         0.734768        -0.335702
 H         2.993686         2.463840        -0.214309
 H         3.512200         2.022109        -1.893857
 H         4.159582        -1.565615         0.011280
