19
Iteration:  2472
 C         0.042879        -0.309473         0.047702
 C         1.509720         0.178247        -0.053652
 C         1.967121         0.739634         1.248360
 C         3.440532         0.362394         1.201945
 C         3.958642         0.562849        -0.173816
 C         3.166235         1.528795        -0.951986
 O         1.845712         0.953578        -1.161273
 C         3.525749        -0.820701         0.264780
 O         2.158289        -1.139517        -0.096856
 H        -0.047228        -1.013460         0.997958
 H        -0.726635         0.479235         0.042243
 H        -0.170477        -0.828580        -0.886112
 H         1.871209         1.812970         1.372421
 H         1.498385         0.247074         2.137038
 H         4.173305         0.573073         1.917587
 H         5.018474         0.730529        -0.177298
 H         3.097513         2.508463        -0.382713
 H         3.518480         1.862013        -1.849317
 H         4.176894        -1.678558         0.495995
