19
Iteration:   589
 C        -0.023516        -0.233446        -0.085142
 C         1.444163         0.071040        -0.007789
 C         2.075343         0.804082         1.428687
 C         3.553881         0.386251         1.325347
 C         3.990766         0.669887        -0.115163
 C         3.084824         1.396662        -1.085791
 O         1.714998         0.895993        -1.173386
 C         3.571924        -0.745673         0.245591
 O         2.202565        -1.165189        -0.071103
 H        -0.262062        -1.143669         0.520109
 H        -0.618832         0.597162         0.099073
 H        -0.083024        -0.410352        -1.149531
 H         2.087672         1.974280         1.351959
 H         1.626087         0.453744         2.365846
 H         4.284329         0.428013         2.146507
 H         5.034303         0.572128        -0.341779
 H         2.995421         2.460326        -0.792393
 H         3.477084         1.378758        -2.208579
 H         4.210183        -1.571781         0.001464
