19
Iteration:  2098charge 0 multiplicity 1
 C         0.006674        -0.328045        -0.048156
 C         1.482647         0.174814         0.003513
 C         2.130897         0.791352         1.336065
 C         3.571756         0.269746         1.334452
 C         3.890715         0.620165        -0.148919
 C         3.126749         1.521618        -1.069812
 O         1.741874         0.891551        -1.177815
 C         3.494429        -0.821564         0.219512
 O         2.165896        -1.079818         0.013449
 H         0.064693        -1.279750         0.384149
 H        -0.683442         0.371030         0.359160
 H        -0.463697        -0.314816        -1.099611
 H         1.975554         1.947728         1.392538
 H         1.503957         0.424201         2.216587
 H         4.438077         0.369727         1.992613
 H         4.933737         0.889188        -0.363000
 H         3.210386         2.662286        -1.021542
 H         3.552323         1.359057        -2.179758
 H         4.297783        -1.536210        -0.017906
