19
Iteration:  1097
 C        -0.077447        -0.160083        -0.072705
 C         1.436170         0.000681         0.028900
 C         2.033434         0.754265         1.316554
 C         3.476065         0.438090         1.270194
 C         4.137712         0.595190        -0.162965
 C         3.071440         1.315137        -1.059223
 O         1.689880         0.971588        -1.011577
 C         3.592917        -0.732138         0.294243
 O         2.315880        -1.155228        -0.193326
 H        -0.435828        -0.903629         0.603792
 H        -0.562456         0.723538         0.146611
 H        -0.405453        -0.364765        -1.107437
 H         1.808945         1.906660         1.252684
 H         1.596476         0.434141         2.312383
 H         3.987856         0.084980         2.157462
 H         5.093277         1.101283        -0.453761
 H         2.984300         2.460398        -0.941270
 H         3.436626         1.159562        -2.054619
 H         4.170312        -1.581274         0.529734
