19
Iteration:   235charge 0 multiplicity 1
 C         0.047440        -0.263687        -0.108178
 C         1.513117         0.101110         0.059324
 C         1.980948         0.730075         1.288675
 C         3.481040         0.393267         1.326836
 C         4.062974         0.643513        -0.120668
 C         3.096031         1.226993        -1.115405
 O         1.625470         1.034887        -0.994755
 C         3.564964        -0.760110         0.251049
 O         2.272493        -1.054184        -0.146266
 H        -0.429516        -1.120073         0.483996
 H        -0.537601         0.761814         0.096641
 H        -0.102901        -0.503141        -1.262791
 H         1.797741         1.752726         1.297712
 H         1.663774         0.163903         2.262948
 H         4.011873         0.637372         2.260334
 H         5.114917         0.807799        -0.237304
 H         3.339830         2.348430        -1.147830
 H         3.367878         0.879320        -2.082292
 H         4.250833        -1.647891         0.157751
