19
Iteration:   239
 C         0.051806        -0.265571        -0.096640
 C         1.500972         0.099587         0.033932
 C         1.979011         0.743846         1.318525
 C         3.472609         0.354477         1.327371
 C         4.089838         0.638149        -0.111317
 C         3.102653         1.231546        -1.127559
 O         1.639162         1.046015        -0.987952
 C         3.568022        -0.728267         0.270004
 O         2.278338        -1.061656        -0.169105
 H        -0.412761        -1.033107         0.492741
 H        -0.634376         0.609469         0.106618
 H        -0.184197        -0.609059        -1.137819
 H         1.803010         1.885866         1.353175
 H         1.551927         0.251111         2.122831
 H         3.982154         0.489189         2.315264
 H         5.176148         0.865869        -0.315387
 H         3.196310         2.351696        -1.312933
 H         3.281458         0.806899        -2.159751
 H         4.187837        -1.626759         0.229529
