19
Iteration:  3100
 C        -0.096690        -0.145860        -0.089979
 C         1.477925         0.065060        -0.025952
 C         1.921290         0.573110         1.406271
 C         3.447635         0.395318         1.252737
 C         4.048295         0.682688        -0.129725
 C         3.165131         1.393959        -1.047295
 O         1.744447         0.970954        -1.077235
 C         3.602798        -0.733573         0.230294
 O         2.319039        -1.133865        -0.155070
 H        -0.295630        -0.988453         0.575469
 H        -0.590518         0.789909         0.330551
 H        -0.446687        -0.210095        -1.174681
 H         1.639327         1.646101         1.646220
 H         1.717507        -0.135333         2.168503
 H         3.978079         0.301892         2.172625
 H         5.044198         0.935718        -0.173054
 H         3.179658         2.482240        -0.689737
 H         3.590996         1.272983        -2.056170
 H         4.178959        -1.636174         0.303031
