19
Iteration:   495
 C         0.006360        -0.321446        -0.052432
 C         1.478043         0.108575         0.005890
 C         2.049471         0.758267         1.485247
 C         3.504385         0.386880         1.302139
 C         3.955470         0.626272         0.004675
 C         3.087318         1.159449        -1.221235
 O         1.658513         1.075113        -1.021825
 C         3.522001        -0.753568         0.285756
 O         2.329943        -0.966822        -0.319418
 H        -0.166497        -0.836683         0.895242
 H        -0.575684         0.599190        -0.153588
 H        -0.044907        -0.941435        -0.991380
 H         1.860034         1.776508         1.242184
 H         1.469005         0.402615         2.383193
 H         4.142368         0.322304         2.175797
 H         5.027406         0.889215        -0.201541
 H         3.424960         2.179624        -1.487491
 H         3.449880         0.492965        -1.960705
 H         4.163407        -1.557468         0.383930
