19
Iteration:  4568charge 0 multiplicity 1
 C         0.078998        -0.419585        -0.139109
 C         1.450898         0.139683         0.066297
 C         1.895667         0.679190         1.451233
 C         3.392809         0.313056         1.240183
 C         4.016564         0.566361        -0.114603
 C         3.160921         1.216050        -1.199200
 O         1.759718         1.237214        -0.777710
 C         3.567300        -0.736666         0.267857
 O         2.277319        -0.982755        -0.382838
 H        -0.172828        -0.928607         0.817698
 H        -0.607037         0.454037        -0.255409
 H        -0.219316        -0.914478        -1.033293
 H         1.623259         1.807073         1.625782
 H         1.500183         0.251613         2.312368
 H         4.050850         0.514356         2.017053
 H         5.225540         0.836263         0.050749
 H         3.489687         2.232458        -1.523180
 H         3.250419         0.726267        -2.201530
 H         4.313401        -1.513562         0.435822
