19
Iteration:  1074
 C         0.029026        -0.254606         0.002099
 C         1.490715         0.112474         0.061049
 C         2.040126         0.771143         1.306469
 C         3.444438         0.351839         1.306037
 C         3.927408         0.577262        -0.134393
 C         3.135127         1.478406        -1.080794
 O         1.802252         0.890603        -1.118432
 C         3.530066        -0.806286         0.244134
 O         2.205704        -1.095640        -0.125519
 H        -0.150072        -1.174935         0.608479
 H        -0.636488         0.478161         0.259508
 H        -0.193275        -0.450966        -1.045441
 H         1.998922         1.928067         1.318750
 H         1.499549         0.447039         2.178271
 H         4.165271         0.735680         2.005397
 H         5.010767         0.729263        -0.361532
 H         3.018454         2.604564        -0.849606
 H         3.563889         1.415743        -2.089975
 H         4.236622        -1.579537        -0.026157
