19
Iteration:   775
 C         0.004837        -0.210029        -0.021411
 C         1.451673         0.094731         0.014094
 C         1.982996         0.670595         1.425393
 C         3.456181         0.430171         1.297328
 C         4.013772         0.557710        -0.190620
 C         3.111786         1.328903        -1.258550
 O         1.760006         0.987577        -1.010856
 C         3.582437        -0.704563         0.341026
 O         2.272526        -1.079737        -0.187787
 H        -0.298083        -0.926578         0.720543
 H        -0.460495         0.710493         0.231775
 H        -0.429416        -0.561037        -0.981930
 H         1.712730         1.860382         1.349474
 H         1.344238         0.082399         2.187505
 H         4.225507         0.602713         2.036040
 H         5.153314         0.664993        -0.210936
 H         3.309848         2.388721        -1.099447
 H         3.371523         0.962638        -2.242165
 H         4.113627        -1.696085         0.447579
