19
Iteration:  2341
 C         0.114639        -0.328272        -0.128005
 C         1.489224         0.202663         0.117837
 C         1.978276         0.734538         1.467227
 C         3.512421         0.309759         1.315071
 C         3.930200         0.632049        -0.100919
 C         3.128937         1.243364        -1.290124
 O         1.696836         1.121829        -0.983448
 C         3.548656        -0.753332         0.252452
 O         2.213377        -1.041077        -0.209578
 H        -0.069266        -1.266533         0.533601
 H        -0.678238         0.420168         0.072380
 H        -0.000115        -0.738665        -1.083294
 H         1.872123         1.823946         1.584909
 H         1.482826         0.167821         2.331308
 H         4.335515         0.521031         2.102021
 H         5.013974         0.795710        -0.219942
 H         3.481084         2.256486        -1.431002
 H         3.278892         0.575808        -2.250038
 H         4.091849        -1.701462         0.396196
