19
Iteration:  3201
 C        -0.024394        -0.204496        -0.139874
 C         1.490344         0.160759         0.050385
 C         1.950066         0.475286         1.436283
 C         3.454554         0.310358         1.320541
 C         3.971437         0.692349        -0.067463
 C         3.111946         1.258506        -1.217398
 O         1.776423         1.150015        -1.030053
 C         3.565840        -0.701557         0.237053
 O         2.274839        -1.060728        -0.178943
 H        -0.346079        -0.830954         0.759832
 H        -0.730946         0.585635        -0.179772
 H        -0.026730        -0.849247        -0.966885
 H         1.647412         1.413365         1.672425
 H         1.662938        -0.235395         2.216310
 H         4.236102         0.487588         2.133638
 H         5.042209         0.888109         0.042202
 H         3.249580         2.427856        -1.225479
 H         3.570699         0.827425        -2.135435
 H         4.439928        -1.404933         0.139762
