19
Iteration:   833
 C         0.041664        -0.271448        -0.036877
 C         1.476949         0.178279         0.096059
 C         2.072216         0.771852         1.419279
 C         3.494195         0.309002         1.222145
 C         4.007519         0.691155        -0.173627
 C         3.047851         1.449940        -1.056245
 O         1.762968         0.853882        -1.237514
 C         3.525345        -0.795556         0.330079
 O         2.162923        -1.099186        -0.105227
 H        -0.429633        -0.811477         0.725438
 H        -0.660457         0.574305        -0.264788
 H         0.005186        -0.856911        -0.904683
 H         2.234736         1.954533         1.472083
 H         1.717850         0.484796         2.438080
 H         4.357032         0.089247         1.865126
 H         5.041536         0.744200        -0.251643
 H         3.120392         2.492480        -0.784939
 H         3.417467         1.491560        -2.136251
 H         4.191937        -1.617746         0.260934
