19
Iteration:  2366charge 0 multiplicity 1
 C        -0.057217        -0.225455        -0.077487
 C         1.433094         0.105262         0.052443
 C         1.917741         0.639585         1.356745
 C         3.490883         0.373896         1.289489
 C         4.034793         0.655809        -0.103376
 C         3.069941         1.077680        -1.244468
 O         1.722017         1.208211        -0.842608
 C         3.623458        -0.697905         0.275469
 O         2.397671        -1.048639        -0.287536
 H        -0.498784        -0.636583         0.795612
 H        -0.599761         0.646030        -0.338479
 H        -0.219442        -0.982379        -0.821605
 H         1.649449         1.678717         1.482055
 H         1.576715         0.075448         2.205599
 H         4.135808         0.438048         2.121427
 H         5.027282         1.015669        -0.280473
 H         3.436238         2.076543        -1.540708
 H         3.070229         0.266661        -2.073783
 H         4.165824        -1.641637         0.497917
