19
Iteration:  4704
 C        -0.081906        -0.319468        -0.006936
 C         1.477087         0.073660        -0.025780
 C         1.970276         0.682719         1.314191
 C         3.420308         0.349330         1.253067
 C         4.042588         0.624439        -0.178446
 C         3.199449         1.436235        -0.996072
 O         1.804334         1.089702        -0.986748
 C         3.547827        -0.773949         0.223879
 O         2.247679        -1.124196        -0.237752
 H        -0.192329        -1.125894         0.722169
 H        -0.712640         0.519231         0.288835
 H        -0.335635        -0.561509        -1.021043
 H         1.749765         1.674131         1.403555
 H         1.441920         0.193171         2.178587
 H         4.006555         0.531566         2.164452
 H         5.083758         0.740537        -0.332430
 H         3.332948         2.504727        -0.785794
 H         3.524250         1.454480        -2.039928
 H         4.169236        -1.630457         0.548809
