19
Iteration:  4732
 C         0.006736        -0.155749        -0.065898
 C         1.506792         0.085261         0.055582
 C         1.954554         0.522118         1.432696
 C         3.445589         0.358963         1.322598
 C         3.998638         0.667191        -0.104220
 C         3.127252         1.297518        -1.181550
 O         1.695191         1.140879        -0.973558
 C         3.601579        -0.762218         0.253761
 O         2.295913        -1.086694        -0.290952
 H        -0.268349        -0.888101         0.709720
 H        -0.640027         0.753623        -0.154993
 H         0.024453        -0.572477        -1.152229
 H         1.398993         1.491735         1.768687
 H         1.499532        -0.203288         2.106295
 H         4.095250         0.550931         2.200601
 H         5.087035         0.844074        -0.172184
 H         3.397232         2.385606        -1.276897
 H         3.434113         0.868449        -2.177602
 H         4.225791        -1.624646         0.372937
