19
Iteration:   606charge 0 multiplicity 1
 C         0.077186        -0.284264         0.040172
 C         1.482165         0.118261         0.049415
 C         2.016514         0.776445         1.238138
 C         3.474306         0.380193         1.244176
 C         4.002490         0.610164        -0.203276
 C         3.137315         1.500957        -1.042889
 O         1.827592         0.867227        -1.112029
 C         3.441754        -0.767744         0.266615
 O         2.193061        -1.114761        -0.116317
 H        -0.097071        -0.933648         0.890277
 H        -0.693160         0.558852         0.225409
 H        -0.320439        -0.733721        -0.890751
 H         1.740197         1.775603         1.180787
 H         1.464395         0.252429         2.094491
 H         4.013377         0.364751         2.187273
 H         5.088519         0.731849        -0.347605
 H         3.034486         2.570142        -0.764646
 H         3.452117         1.516718        -2.040703
 H         4.214702        -1.531972         0.553037
