19
Iteration:   760
 C        -0.005963        -0.208043         0.016197
 C         1.485348         0.153973         0.050233
 C         1.959264         0.697180         1.346532
 C         3.493385         0.390978         1.292201
 C         3.992251         0.692264        -0.082117
 C         3.171303         1.166565        -1.191986
 O         1.697105         1.051729        -1.094507
 C         3.551005        -0.780450         0.257964
 O         2.264944        -1.050166        -0.169817
 H        -0.148302        -1.200465         0.673610
 H        -0.760025         0.579933         0.316335
 H        -0.164421        -0.582811        -1.016340
 H         1.744189         1.652967         1.570510
 H         1.801118         0.115941         2.252796
 H         4.028393         0.397470         2.259403
 H         5.018035         0.890976        -0.323885
 H         3.349534         2.276444        -1.388334
 H         3.430806         0.594904        -2.094258
 H         4.350941        -1.468416         0.256869
