19
Iteration:   826
 C         0.003833        -0.253999        -0.099988
 C         1.461797         0.123817         0.055573
 C         2.139604         0.786346         1.442591
 C         3.523434         0.309090         1.243906
 C         3.999107         0.670211        -0.180307
 C         3.062683         1.486944        -1.134456
 O         1.750782         0.872613        -1.182812
 C         3.527529        -0.816505         0.288115
 O         2.172303        -1.072126        -0.031630
 H        -0.430696        -0.906061         0.789332
 H        -0.643404         0.603186        -0.230107
 H        -0.129522        -0.997386        -0.948629
 H         2.027793         1.802424         1.394774
 H         1.624937         0.323966         2.273731
 H         4.217885         0.247711         2.109973
 H         5.099415         0.832361        -0.329959
 H         2.944825         2.507556        -0.656715
 H         3.604093         1.498960        -2.106343
 H         4.102681        -1.769048         0.295742
