19
Iteration:  1061charge 0 multiplicity 1
 C         0.035097        -0.297761         0.009839
 C         1.472855         0.183969        -0.035409
 C         2.005752         0.740183         1.382527
 C         3.503215         0.335373         1.250804
 C         3.993067         0.625811        -0.234036
 C         3.117877         1.494042        -1.084645
 O         1.844950         0.956526        -1.216569
 C         3.480053        -0.758876         0.256369
 O         2.163839        -1.151637        -0.004529
 H         0.091673        -1.176176         0.727510
 H        -0.652192         0.430142         0.464587
 H        -0.261068        -0.709904        -0.936578
 H         1.810061         1.815470         1.438346
 H         1.521761         0.241379         2.146498
 H         3.982151         0.078135         2.195795
 H         5.069958         0.804565        -0.194001
 H         3.142415         2.523310        -0.634920
 H         3.552922         1.547616        -2.132206
 H         4.111531        -1.681349         0.456385
