19
Iteration:  3059charge 0 multiplicity 1
 C         0.081508        -0.276853        -0.045656
 C         1.438272         0.163295        -0.048523
 C         2.031956         0.795667         1.326579
 C         3.463256         0.300100         1.265303
 C         3.970460         0.589306        -0.102145
 C         3.089961         1.527119        -0.894642
 O         1.805146         0.917800        -1.181877
 C         3.552147        -0.784022         0.195604
 O         2.199993        -1.146967        -0.142278
 H        -0.137591        -0.978412         0.746217
 H        -0.639629         0.507639         0.180476
 H        -0.298077        -0.698162        -0.918456
 H         1.902490         1.835835         1.259111
 H         1.351357         0.368816         2.094693
 H         4.168676         0.137785         2.069155
 H         5.032096         0.715693        -0.196905
 H         2.921517         2.431396        -0.309897
 H         3.511352         1.695090        -1.857376
 H         4.380872        -1.505060         0.300088
