19
Iteration:  4750charge 0 multiplicity 1
 C         0.027436        -0.214941        -0.241045
 C         1.439956         0.136782         0.087147
 C         1.954982         0.486232         1.518686
 C         3.473523         0.351284         1.270301
 C         3.943158         0.736388        -0.087245
 C         3.132114         1.181322        -1.226158
 O         1.781605         1.104379        -0.869781
 C         3.543949        -0.690257         0.216648
 O         2.279271        -1.004430        -0.258560
 H        -0.393537        -0.704630         0.774821
 H        -0.536566         0.746768        -0.182593
 H        -0.209921        -0.692824        -1.138342
 H         1.823731         1.498581         1.917841
 H         1.693108        -0.211051         2.336711
 H         4.200826         0.210888         2.034161
 H         5.093147         1.023407         0.059629
 H         3.208316         2.156014        -1.650945
 H         3.432042         0.595770        -2.144873
 H         4.337069        -1.430368         0.137421
