19
Iteration:  3878
 C         0.038478        -0.270105        -0.096285
 C         1.448176         0.053207         0.022994
 C         1.989062         0.747987         1.341621
 C         3.470056         0.287939         1.288973
 C         4.002958         0.592668        -0.142154
 C         3.167927         1.587702        -0.964324
 O         1.798364         0.972070        -1.149893
 C         3.484798        -0.807953         0.264933
 O         2.207078        -1.118191        -0.164588
 H        -0.276988        -0.833269         0.871909
 H        -0.541862         0.643263        -0.191489
 H        -0.070503        -0.997923        -0.834619
 H         1.752816         1.775970         1.252403
 H         1.581063         0.296694         2.266688
 H         4.054168         0.264808         2.201670
 H         5.152195         0.670036        -0.402151
 H         3.041121         2.616975        -0.571473
 H         3.547364         1.776975        -2.021949
 H         4.259961        -1.553475         0.413320
