19
Iteration:  3706
 C         0.043585        -0.187064        -0.132789
 C         1.468109         0.097129         0.010846
 C         1.902768         0.620948         1.358713
 C         3.428545         0.319860         1.269334
 C         4.063082         0.640099        -0.136821
 C         3.108198         1.421580        -1.050184
 O         1.762565         1.019956        -0.995312
 C         3.568253        -0.750421         0.276693
 O         2.287350        -1.134393        -0.197709
 H        -0.324742        -0.707956         0.907187
 H        -0.388900         0.838369        -0.227221
 H        -0.371177        -0.698258        -0.989642
 H         1.569270         1.727081         1.255597
 H         1.481924         0.113905         2.301742
 H         4.072172         0.284445         2.165482
 H         5.081251         0.865217        -0.324071
 H         3.325222         2.547889        -0.879810
 H         3.349475         1.237899        -2.119808
 H         4.224315        -1.702155         0.396378
