19
Iteration:  4251
 C        -0.144187        -0.165941        -0.070559
 C         1.476790         0.045405        -0.064661
 C         2.033008         0.744828         1.272325
 C         3.457318         0.326545         1.319498
 C         4.045465         0.631383        -0.068920
 C         3.114661         1.476489        -0.846301
 O         1.727813         0.886683        -1.161609
 C         3.629342        -0.781434         0.193548
 O         2.322701        -1.148112        -0.165435
 H        -0.563135        -0.657529         0.760699
 H        -0.590834         0.776290        -0.184817
 H        -0.445984        -0.833356        -0.888531
 H         1.852062         1.831178         1.115814
 H         1.530356         0.483422         2.164103
 H         4.101246         0.396415         2.232554
 H         5.058911         0.847936        -0.362992
 H         2.980987         2.477470        -0.306209
 H         3.395396         1.741583        -1.833901
 H         4.334491        -1.595787         0.258550
