19
Iteration:   965
 C        -0.001601        -0.313301        -0.007223
 C         1.445293         0.134643         0.121988
 C         1.928262         0.610936         1.445716
 C         3.379866         0.531898         1.208721
 C         4.098721         0.521471        -0.202973
 C         3.211843         1.243672        -1.307281
 O         1.764011         1.148095        -0.960334
 C         3.541994        -0.717333         0.355346
 O         2.262504        -1.041052        -0.258830
 H        -0.233377        -1.024992         0.836079
 H        -0.520948         0.567449         0.102412
 H        -0.130647        -0.840988        -0.929879
 H         1.438579         1.706450         1.661366
 H         1.716237        -0.179313         2.238388
 H         4.049997         0.382711         2.049682
 H         5.193822         0.741403        -0.060594
 H         3.199474         2.339402        -1.384294
 H         3.342391         0.795425        -2.243807
 H         4.074489        -1.707612         0.411003
