19
Iteration:   935
 C        -0.041208        -0.295891        -0.152153
 C         1.428540         0.179119         0.022786
 C         2.017083         0.743068         1.402513
 C         3.453491         0.424453         1.255593
 C         4.003471         0.624070        -0.157381
 C         3.095869         1.192677        -1.236018
 O         1.724638         1.177871        -0.885655
 C         3.623533        -0.776318         0.328499
 O         2.310415        -1.165883        -0.186156
 H        -0.169912        -1.080110         0.696821
 H        -0.676607         0.512158         0.231196
 H        -0.442266        -0.587210        -1.183597
 H         1.859242         1.815890         1.560283
 H         1.616481         0.246968         2.320057
 H         4.182799         0.526976         2.057132
 H         5.101936         0.894660        -0.026600
 H         3.152166         2.200525        -1.582111
 H         3.343298         0.454898        -2.139080
 H         4.308524        -1.639629         0.200111
