19
Iteration:  4446charge 0 multiplicity 1
 C         0.054839        -0.368001        -0.094449
 C         1.454422         0.156619         0.016495
 C         2.013520         0.761772         1.370587
 C         3.478535         0.319458         1.280147
 C         4.020819         0.600366        -0.131404
 C         3.098360         1.518700        -0.943809
 O         1.829495         0.962711        -1.128485
 C         3.502406        -0.759831         0.197226
 O         2.163405        -1.087214        -0.198619
 H        -0.070240        -0.927505         0.890981
 H        -0.710909         0.358509         0.038507
 H        -0.111476        -0.955132        -0.978655
 H         1.779394         1.884806         1.389350
 H         1.517842         0.280489         2.197384
 H         4.229128         0.068358         2.090395
 H         5.124229         0.598547        -0.345792
 H         3.039172         2.540747        -0.392222
 H         3.558162         1.663440        -1.940929
 H         4.087556        -1.643842         0.485483
