19
Iteration:   847
 C         0.041239        -0.223988         0.035770
 C         1.450431         0.150407         0.050620
 C         2.044345         0.821169         1.354576
 C         3.520671         0.359223         1.281983
 C         3.983896         0.583271        -0.139017
 C         3.095177         1.418286        -1.050662
 O         1.776176         0.859051        -1.138828
 C         3.489750        -0.761365         0.191314
 O         2.217094        -1.122562        -0.176418
 H        -0.172479        -0.832689         0.989895
 H        -0.593669         0.644753        -0.084509
 H        -0.042127        -0.933749        -0.826061
 H         1.898729         1.842753         1.278301
 H         1.446505         0.422875         2.155107
 H         4.087564         0.551711         2.194551
 H         5.047259         0.783282        -0.354701
 H         2.946396         2.428466        -0.688692
 H         3.587328         1.365497        -2.079599
 H         4.200420        -1.603109         0.306965
