19
Iteration:   208charge 0 multiplicity 1
 C        -0.079304        -0.227900        -0.140925
 C         1.514252         0.103902         0.039255
 C         1.951408         0.673931         1.462828
 C         3.462265         0.410363         1.250023
 C         4.063801         0.646898        -0.317804
 C         3.123411         1.468687        -1.195615
 O         1.804307         0.956582        -1.017612
 C         3.500846        -0.725097         0.351735
 O         2.249229        -1.212309        -0.068284
 H        -0.207605        -1.085503         0.451034
 H        -0.598166         0.610131         0.171517
 H        -0.272110        -0.391748        -1.149551
 H         1.643143         1.780400         1.666532
 H         1.722327         0.038677         2.281941
 H         4.146149         0.488599         2.115650
 H         5.178454         0.755707        -0.389813
 H         3.285752         2.471663        -0.869622
 H         3.399680         1.343547        -2.300278
 H         4.210174        -1.510311         0.551272
