19
Iteration:   164
 C        -0.000779        -0.245372        -0.007018
 C         1.479034         0.096997        -0.016471
 C         2.047436         0.832324         1.392462
 C         3.505125         0.336993         1.343385
 C         3.980925         0.605354        -0.120246
 C         3.077754         1.451559        -1.090072
 O         1.695701         0.896978        -1.146427
 C         3.541711        -0.762977         0.338285
 O         2.289297        -1.155384        -0.255387
 H        -0.260485        -0.935955         0.728339
 H        -0.532680         0.647253         0.138373
 H        -0.394217        -0.607901        -0.924705
 H         2.158573         2.004808         1.200161
 H         1.491878         0.487865         2.280339
 H         4.184587         0.362994         2.258760
 H         5.102083         0.735668        -0.244382
 H         2.967037         2.471607        -0.783960
 H         3.472684         1.415014        -2.174168
 H         4.279873        -1.609785         0.407477
