19
Iteration:  1214charge 0 multiplicity 1
 C        -0.095668        -0.295468        -0.014420
 C         1.465330         0.098884         0.078105
 C         1.946385         0.636093         1.415440
 C         3.472476         0.381326         1.222839
 C         4.010277         0.695024        -0.113117
 C         3.194898         1.377416        -1.158730
 O         1.825125         1.000707        -1.161628
 C         3.555788        -0.752677         0.195316
 O         2.215536        -1.051923        -0.050241
 H        -0.312789        -1.158712         0.757500
 H        -0.626680         0.616180         0.153627
 H        -0.304036        -0.571865        -1.121116
 H         1.641592         1.613644         1.886718
 H         1.621929        -0.144020         2.128010
 H         4.187427         0.511624         2.052619
 H         5.116883         0.784518        -0.364974
 H         3.334808         2.419849        -1.043494
 H         3.599560         1.189492        -2.196785
 H         4.300860        -1.501227         0.179729
