19
Iteration:   773charge 0 multiplicity 1
 C        -0.000067        -0.207935        -0.019508
 C         1.458755         0.106569         0.009235
 C         1.982161         0.673280         1.430713
 C         3.464037         0.427698         1.301200
 C         4.006468         0.566272        -0.180517
 C         3.119437         1.295896        -1.252835
 O         1.751106         0.992394        -1.016039
 C         3.581102        -0.707702         0.339519
 O         2.275791        -1.068864        -0.189928
 H        -0.260368        -0.989400         0.788470
 H        -0.503357         0.698196         0.242467
 H        -0.402526        -0.540128        -1.018549
 H         1.704480         1.764557         1.375876
 H         1.317100         0.122093         2.133779
 H         4.205801         0.585711         2.087073
 H         5.127254         0.661494        -0.282715
 H         3.265472         2.404453        -1.157073
 H         3.438335         0.955180        -2.209112
 H         4.142219        -1.662411         0.349640
