19
Iteration:  4400charge 0 multiplicity 1
 C         0.039175        -0.131053        -0.138271
 C         1.502171         0.013024         0.010345
 C         1.949164         0.490464         1.444079
 C         3.377949         0.454799         1.255775
 C         3.993686         0.637381        -0.201831
 C         3.158045         1.340135        -1.178033
 O         1.743078         1.100515        -0.884652
 C         3.552822        -0.726229         0.278511
 O         2.337206        -1.137692        -0.206415
 H        -0.525011        -0.569995         0.656489
 H        -0.503840         0.826903        -0.303133
 H        -0.125523        -0.722274        -1.099627
 H         1.557573         1.479783         1.562852
 H         1.601273        -0.217566         2.285560
 H         3.997716         0.553572         2.209976
 H         4.918016         1.002255        -0.179240
 H         3.128377         2.501301        -1.146758
 H         3.364591         0.995582        -2.170053
 H         4.237090        -1.573193         0.543525
