19
Iteration:  3512charge 0 multiplicity 1
 C         0.023138        -0.340188        -0.142382
 C         1.461830         0.149076         0.022695
 C         1.994226         0.643177         1.389052
 C         3.392540         0.302149         1.303963
 C         4.050056         0.608255        -0.103265
 C         3.210905         1.438716        -1.110423
 O         1.755184         1.107190        -1.072758
 C         3.545779        -0.790294         0.209683
 O         2.203233        -1.054737        -0.082755
 H        -0.260107        -1.025035         0.698572
 H        -0.729498         0.404903        -0.268537
 H         0.115002        -0.879906        -1.028922
 H         1.714617         1.687064         1.669960
 H         1.561568         0.083413         2.164234
 H         4.054435         0.463481         2.131485
 H         5.063067         0.864828        -0.154017
 H         3.295310         2.603938        -1.021136
 H         3.396239         1.158617        -2.128948
 H         4.117398        -1.701774         0.143202
