19
Iteration:   397charge 0 multiplicity 1
 C        -0.050432        -0.260469         0.082198
 C         1.418426         0.045648        -0.018802
 C         2.077751         0.809450         1.277224
 C         3.479887         0.313150         1.331713
 C         4.039665         0.671327         0.021033
 C         3.112245         1.476248        -1.116644
 O         1.748896         0.921242        -1.161976
 C         3.513860        -0.792376         0.271742
 O         2.255302        -1.152083        -0.216034
 H        -0.095935        -1.075835         0.770872
 H        -0.633533         0.598553         0.299840
 H        -0.245573        -0.523614        -0.945622
 H         2.010492         1.807827         0.885063
 H         1.338301         0.731694         2.164613
 H         4.146228         0.464904         2.202351
 H         5.097938         0.878142        -0.071900
 H         3.159563         2.588755        -0.995178
 H         3.571203         1.265735        -2.183387
 H         4.290184        -1.583701         0.284735
