19
Iteration:  2349
 C         0.127489        -0.311943        -0.125542
 C         1.539791         0.131805         0.081120
 C         2.021497         0.692223         1.484415
 C         3.440808         0.309302         1.310089
 C         3.971192         0.644124        -0.123793
 C         3.093158         1.190458        -1.316080
 O         1.659962         1.161401        -0.940089
 C         3.590308        -0.765300         0.330966
 O         2.226771        -0.991407        -0.250569
 H        -0.261801        -0.914284         0.743339
 H        -0.607162         0.578232        -0.052299
 H         0.005778        -0.805439        -1.174363
 H         1.887183         1.800950         1.408846
 H         1.398780         0.318196         2.334086
 H         4.047492         0.373898         2.240814
 H         5.071852         0.785040        -0.095300
 H         3.204258         2.236576        -1.659112
 H         3.208876         0.446796        -2.071119
 H         4.250255        -1.593636         0.232665
