19
Iteration:  4404
 C         0.012518        -0.132192        -0.164449
 C         1.499500         0.008561        -0.004069
 C         1.924648         0.519652         1.467675
 C         3.427199         0.419852         1.270021
 C         3.960885         0.616353        -0.175965
 C         3.133164         1.387952        -1.154400
 O         1.746214         1.083212        -0.905206
 C         3.598642        -0.715513         0.245428
 O         2.331824        -1.159017        -0.186541
 H        -0.516497        -0.671937         0.693436
 H        -0.398976         0.818051        -0.418602
 H        -0.243569        -0.688307        -1.036068
 H         1.659641         1.650269         1.622029
 H         1.483889        -0.019846         2.278751
 H         4.019375         0.424987         2.223806
 H         5.125731         1.020950        -0.316386
 H         3.204029         2.464500        -1.191139
 H         3.267821         1.076180        -2.234161
 H         4.280570        -1.496844         0.585883
