19
Iteration:  1009charge 0 multiplicity 1
 C         0.063632        -0.155359        -0.071108
 C         1.498468         0.022837         0.033034
 C         1.985757         0.776098         1.415948
 C         3.452354         0.302629         1.279832
 C         4.045865         0.700144        -0.163237
 C         3.113483         1.381054        -1.197370
 O         1.627776         0.952333        -1.006341
 C         3.566625        -0.771746         0.254918
 O         2.291537        -1.164180        -0.159894
 H        -0.467948        -0.634971         0.789825
 H        -0.291029         0.794036        -0.100153
 H        -0.130192        -0.632702        -1.017791
 H         1.871802         1.989774         1.384502
 H         1.472173         0.387819         2.360434
 H         3.999810         0.421753         2.210291
 H         5.175840         0.744953        -0.179291
 H         3.089080         2.532476        -1.088982
 H         3.451371         1.026240        -2.137533
 H         4.209322        -1.691173         0.360995
