19
Iteration:  4065charge 0 multiplicity 1
 C        -0.073579        -0.189662        -0.101131
 C         1.439630         0.079810        -0.096208
 C         2.008582         0.686355         1.340956
 C         3.520895         0.343630         1.287754
 C         3.993828         0.622471        -0.121666
 C         3.107782         1.592283        -0.887530
 O         1.879915         0.859598        -1.206658
 C         3.499617        -0.781712         0.276828
 O         2.229109        -1.145008        -0.106236
 H        -0.178592        -0.658081         0.833272
 H        -0.546177         0.779645        -0.040293
 H        -0.414815        -0.950333        -0.802173
 H         1.765732         1.715717         1.537954
 H         1.489708         0.016927         2.013286
 H         4.195932         0.494183         2.165043
 H         4.965509         0.723467        -0.496178
 H         2.972146         2.428573        -0.308009
 H         3.562190         1.964342        -1.786930
 H         4.291106        -1.570590         0.042802
