19
Iteration:  3333charge 0 multiplicity 1
 C        -0.027705        -0.164163        -0.125060
 C         1.506477         0.073624        -0.011743
 C         1.909182         0.475573         1.419101
 C         3.458558         0.408010         1.266128
 C         4.004237         0.664627        -0.068655
 C         3.166959         1.295681        -1.200087
 O         1.712085         1.146018        -0.957407
 C         3.580455        -0.748662         0.301367
 O         2.326353        -1.078266        -0.205701
 H        -0.437070        -0.748665         0.728815
 H        -0.538827         0.821613        -0.137185
 H        -0.405646        -0.645230        -1.026075
 H         1.630579         1.395757         1.795885
 H         1.699761        -0.348904         2.119813
 H         4.078430         0.498282         2.136577
 H         5.158484         0.957452        -0.235777
 H         3.253024         2.313848        -1.306702
 H         3.333307         0.846249        -2.207832
 H         4.242755        -1.599826         0.319161
