19
Iteration:  2136charge 0 multiplicity 1
 C        -0.068274        -0.216582         0.006765
 C         1.443762         0.058842         0.015359
 C         1.917662         0.592398         1.334641
 C         3.505203         0.548715         1.166076
 C         4.070469         0.562396        -0.221924
 C         3.150591         1.252347        -1.197439
 O         1.712607         1.069869        -0.895574
 C         3.600045        -0.738156         0.359193
 O         2.323203        -1.089120        -0.227159
 H        -0.608317        -0.879289         0.773761
 H        -0.422406         0.850848         0.259624
 H        -0.416507        -0.341944        -1.009552
 H         1.515164         1.552511         1.462861
 H         1.588326        -0.039101         2.138557
 H         4.159710         0.641928         2.081036
 H         5.169181         0.785713        -0.196675
 H         3.239233         2.362063        -1.093521
 H         3.426593         0.876971        -2.134450
 H         4.151780        -1.596721         0.674795
