19
Iteration:   785
 C        -0.015589        -0.186797        -0.038537
 C         1.493387         0.011062         0.074387
 C         1.947393         0.686579         1.356300
 C         3.427041         0.446482         1.204685
 C         4.061134         0.562737        -0.246864
 C         3.133030         1.420023        -1.224109
 O         1.772036         0.999268        -1.002982
 C         3.544035        -0.791336         0.336677
 O         2.256658        -1.149472        -0.140783
 H        -0.422109        -0.841106         0.773152
 H        -0.430789         0.778946         0.075450
 H        -0.336954        -0.598661        -1.039054
 H         1.688193         1.819890         1.498575
 H         1.832894         0.249481         2.379821
 H         4.143419         0.656992         1.996593
 H         5.121527         0.904091        -0.023060
 H         3.347418         2.481046        -0.963442
 H         3.186122         1.347746        -2.286103
 H         4.131884        -1.564788         0.879942
