19
Iteration:  4179
 C        -0.007997        -0.217544        -0.282742
 C         1.415269         0.020450         0.094164
 C         1.940961         0.596933         1.377590
 C         3.442092         0.417954         1.290754
 C         4.048185         0.681524        -0.068606
 C         3.117160         1.165834        -1.195782
 O         1.737456         1.164498        -0.822879
 C         3.584845        -0.735318         0.327520
 O         2.344267        -1.024415        -0.294785
 H        -0.444210        -1.141563         0.336094
 H        -0.469805         0.756947         0.017839
 H        -0.303563        -0.537366        -1.307822
 H         1.675486         1.684807         1.538778
 H         1.677195         0.073499         2.345911
 H         4.157219         0.505045         2.123388
 H         5.167166         1.086683        -0.037215
 H         3.170634         2.084469        -1.637465
 H         3.300800         0.398880        -2.028555
 H         4.083735        -1.676948         0.569017
