19
Iteration:   200charge 0 multiplicity 1
 C        -0.032962        -0.251368        -0.086439
 C         1.401877         0.127619         0.038628
 C         1.960953         0.662128         1.376096
 C         3.438603         0.399801         1.229453
 C         4.145281         0.650205        -0.281187
 C         3.188883         1.508023        -1.202632
 O         1.800481         0.915356        -1.032345
 C         3.499708        -0.704484         0.300275
 O         2.228341        -1.186077        -0.005864
 H        -0.210842        -1.142764         0.615407
 H        -0.462684         0.689737         0.265988
 H        -0.158020        -0.361803        -1.154778
 H         1.532322         1.582459         1.716163
 H         1.538971        -0.094547         2.210133
 H         3.985572         0.335446         2.124223
 H         5.216374         0.662367        -0.432442
 H         3.151492         2.551494        -0.818376
 H         3.326006         1.489553        -2.291180
 H         4.198431        -1.462962         0.433907
