19
Iteration:  4983charge 0 multiplicity 1
 C         0.053420        -0.176129        -0.173363
 C         1.531603         0.098275         0.062653
 C         1.923042         0.452607         1.558492
 C         3.411661         0.317665         1.313938
 C         4.008938         0.742945        -0.131667
 C         3.090881         1.195726        -1.310724
 O         1.728486         1.196971        -0.857902
 C         3.579839        -0.711006         0.255423
 O         2.299518        -1.046941        -0.252153
 H        -0.417071        -0.764756         0.586599
 H        -0.425416         0.784383        -0.166725
 H         0.042275        -0.627752        -1.268493
 H         1.604479         1.565992         1.813755
 H         1.505048        -0.260234         2.256451
 H         4.101570         0.225115         2.136082
 H         4.954756         1.047703        -0.251336
 H         3.388730         2.294440        -1.612305
 H         3.213376         0.553623        -2.246343
 H         4.198137        -1.625778         0.171942
