19
Iteration:  1465
 C        -0.131111        -0.229324         0.025654
 C         1.500736         0.136412        -0.031826
 C         2.002140         0.609009         1.332393
 C         3.538563         0.408293         1.222590
 C         4.065893         0.738205        -0.138998
 C         3.140527         1.574634        -1.088175
 O         1.805139         0.828739        -1.218169
 C         3.536193        -0.819693         0.251213
 O         2.208892        -1.122080         0.004731
 H        -0.207081        -0.839420         0.865719
 H        -0.761774         0.671589         0.100518
 H        -0.257940        -0.750804        -0.910473
 H         1.682780         1.706075         1.501507
 H         1.693277        -0.128827         2.110486
 H         4.106172         0.559060         2.118442
 H         5.073658         0.493949        -0.322386
 H         3.030312         2.516850        -0.493854
 H         3.305299         1.849375        -2.122177
 H         4.084785        -1.775013         0.235532
