19
Iteration:   615
 C        -0.004261        -0.310245         0.125067
 C         1.463704         0.081600        -0.081656
 C         1.951045         0.791162         1.264901
 C         3.397533         0.404084         1.161453
 C         4.037737         0.603217        -0.211103
 C         3.134258         1.461040        -1.039714
 O         1.878294         0.937765        -1.105979
 C         3.565888        -0.802519         0.299813
 O         2.186507        -1.116004        -0.109901
 H        -0.048856        -0.894127         1.027964
 H        -0.495352         0.726148         0.210897
 H        -0.314324        -0.905786        -0.797317
 H         1.812873         1.835568         1.342727
 H         1.560197         0.313253         2.130728
 H         4.056005         0.480741         2.022736
 H         5.137428         0.878994        -0.148666
 H         3.126553         2.441604        -0.491319
 H         3.346478         1.635271        -2.057922
 H         4.038059        -1.781404         0.526783
