19
Iteration:  4946
 C        -0.051686        -0.288391        -0.065927
 C         1.420432         0.048613        -0.060860
 C         1.946506         0.572313         1.386181
 C         3.489823         0.415774         1.309940
 C         4.117800         0.608686        -0.157470
 C         3.174587         1.276914        -1.145185
 O         1.712689         1.248771        -0.859547
 C         3.552651        -0.747817         0.315572
 O         2.293880        -1.039386        -0.326812
 H        -0.249433        -0.947521         0.807786
 H        -0.771975         0.564056        -0.172679
 H        -0.403957        -0.894829        -0.907422
 H         1.418882         1.544090         1.629754
 H         1.641686        -0.143308         2.241957
 H         4.137009         0.215988         2.189235
 H         5.335181         0.775243        -0.278540
 H         3.327868         2.331894        -1.156679
 H         3.261717         0.802555        -2.127118
 H         4.204655        -1.592589         0.315180
