19
Iteration:  2876charge 0 multiplicity 1
 C        -0.013031        -0.125861        -0.041646
 C         1.447170         0.115558        -0.064690
 C         2.032244         0.596522         1.322267
 C         3.532882         0.334645         1.286382
 C         3.916913         0.670447        -0.117011
 C         3.063980         1.631221        -0.980179
 O         1.884513         0.843412        -1.198420
 C         3.569782        -0.786138         0.201530
 O         2.182136        -1.185769        -0.035173
 H        -0.267507        -0.702329         0.802244
 H        -0.428042         0.884734        -0.011412
 H        -0.174480        -0.590655        -0.986272
 H         1.818120         1.623542         1.462642
 H         1.472166        -0.034899         2.007757
 H         4.153533         0.316327         2.198046
 H         4.987707         0.702959        -0.274767
 H         2.674342         2.466673        -0.522952
 H         3.541774         1.778541        -1.905362
 H         4.364027        -1.588763         0.230501
