19
Iteration:   930charge 0 multiplicity 1
 C        -0.049477        -0.270335        -0.133135
 C         1.383730         0.174297         0.049534
 C         2.037274         0.731336         1.430752
 C         3.494680         0.404208         1.254788
 C         4.026704         0.646287        -0.127998
 C         3.100135         1.191630        -1.287781
 O         1.685125         1.154948        -0.926767
 C         3.639724        -0.782331         0.298682
 O         2.304551        -1.157584        -0.160765
 H        -0.246272        -1.119293         0.469901
 H        -0.884497         0.437397         0.090356
 H        -0.245068        -0.469904        -1.151579
 H         1.880482         1.905135         1.644675
 H         1.564639         0.244056         2.304631
 H         4.128785         0.357340         2.154881
 H         5.032194         0.871061         0.100941
 H         3.270867         2.246201        -1.680602
 H         3.420087         0.582216        -2.049700
 H         4.455220        -1.523590         0.249982
