19
Iteration:  3810charge 0 multiplicity 1
 C         0.019077        -0.139974        -0.139661
 C         1.466691         0.108005         0.042854
 C         1.885553         0.515656         1.466103
 C         3.403634         0.409861         1.242919
 C         3.950027         0.681098        -0.104253
 C         3.206006         1.373908        -1.165878
 O         1.781550         1.006721        -0.991245
 C         3.606292        -0.739941         0.269104
 O         2.274967        -1.103795        -0.181482
 H        -0.340429        -0.908753         0.473922
 H        -0.643837         0.678926         0.165767
 H        -0.187484        -0.523057        -1.195835
 H         1.644635         1.538080         1.737441
 H         1.470966        -0.197308         2.156077
 H         4.132438         0.554412         2.047342
 H         5.172885         0.713320        -0.102586
 H         3.463622         2.451722        -1.239147
 H         3.514607         1.008604        -2.227701
 H         4.225902        -1.639001         0.164990
