19
Iteration:   304charge 0 multiplicity 1
 C        -0.077915        -0.245959        -0.124216
 C         1.436289         0.051564         0.044122
 C         2.018602         0.668750         1.445902
 C         3.458356         0.439675         1.270805
 C         3.990071         0.628070        -0.180642
 C         3.133911         1.276771        -1.236310
 O         1.732673         1.099208        -0.964711
 C         3.583452        -0.755690         0.368413
 O         2.305349        -1.120205        -0.196250
 H        -0.409185        -0.860880         0.749662
 H        -0.548311         0.787003        -0.232509
 H        -0.129215        -0.829103        -1.089766
 H         1.770208         1.777520         1.600882
 H         1.590185         0.071981         2.205200
 H         4.225898         0.664394         2.013441
 H         5.073074         0.910374        -0.185147
 H         3.386708         2.378023        -1.325804
 H         3.482480         0.882448        -2.146314
 H         4.239683        -1.579411         0.479260
