19
Iteration:  2837
 C        -0.148301        -0.163642        -0.058096
 C         1.538954         0.058212         0.010914
 C         2.010791         0.695469         1.310603
 C         3.469376         0.366881         1.275280
 C         4.001843         0.592207        -0.122457
 C         3.094685         1.488867        -0.974918
 O         1.793128         0.925480        -1.046891
 C         3.589229        -0.789962         0.279717
 O         2.306416        -1.126695        -0.259585
 H        -0.691542        -0.650582         0.886647
 H        -0.822747         0.660843        -0.289512
 H        -0.361300        -0.980499        -0.766530
 H         1.759055         1.845307         1.293136
 H         1.429440         0.396838         2.201103
 H         4.177544         0.389802         2.069853
 H         5.088420         0.714598        -0.270668
 H         3.239626         2.547163        -0.585059
 H         3.437684         1.549843        -2.075719
 H         4.284207        -1.613007         0.331005
