19
Iteration:   303charge 0 multiplicity 1
 C        -0.079764        -0.247667        -0.117602
 C         1.430975         0.052334         0.037584
 C         2.025910         0.667543         1.446305
 C         3.453401         0.441855         1.266326
 C         3.996739         0.627060        -0.179568
 C         3.137815         1.275025        -1.240772
 O         1.735174         1.102780        -0.963035
 C         3.572541        -0.751678         0.369833
 O         2.311299        -1.119014        -0.195746
 H        -0.354384        -0.853276         0.766529
 H        -0.574092         0.787614        -0.239928
 H        -0.143585        -0.843153        -1.093238
 H         1.756729         1.745472         1.601032
 H         1.551297         0.044300         2.184479
 H         4.221638         0.636721         2.025977
 H         5.072049         0.925884        -0.218407
 H         3.375240         2.383780        -1.307234
 H         3.476743         0.872372        -2.130654
 H         4.227076        -1.588365         0.516881
