19
Iteration:  1191charge 0 multiplicity 1
 C         0.035749        -0.231220        -0.037541
 C         1.520341         0.110945         0.020663
 C         1.985102         0.687201         1.359524
 C         3.452115         0.415072         1.272641
 C         4.013395         0.650900        -0.162788
 C         3.133521         1.310143        -1.189772
 O         1.713041         1.060980        -0.916159
 C         3.474719        -0.767425         0.323990
 O         2.305870        -1.168922        -0.250104
 H        -0.219782        -1.013058         0.786175
 H        -0.621407         0.649445        -0.062607
 H        -0.068048        -0.698260        -1.062053
 H         1.745029         1.751294         1.315020
 H         1.424967         0.290928         2.258705
 H         4.102366         0.543665         2.139261
 H         5.083526         0.829794        -0.382188
 H         3.322629         2.358107        -1.081252
 H         3.201246         1.097773        -2.261850
 H         4.154286        -1.567017         0.520039
