19
Iteration:   281charge 0 multiplicity 1
 C         0.038830        -0.330438         0.064719
 C         1.441528         0.129774         0.000194
 C         1.848577         0.607041         1.322558
 C         3.399037         0.491036         1.258793
 C         4.109148         0.589472        -0.149197
 C         3.193233         1.232979        -1.205303
 O         1.768092         1.127922        -0.989569
 C         3.569271        -0.717735         0.284612
 O         2.218324        -1.011173        -0.209500
 H         0.009249        -0.849140         1.038572
 H        -0.584450         0.675424        -0.019066
 H        -0.069351        -1.082676        -0.832765
 H         1.416471         1.590704         1.634833
 H         1.546943        -0.194246         2.023752
 H         4.058061         0.501059         2.169227
 H         5.224708         0.632738        -0.153069
 H         3.512979         2.310916        -1.365691
 H         3.496705         0.758211        -2.097196
 H         4.211833        -1.599667         0.414615
