19
Iteration:   587charge 0 multiplicity 1
 C        -0.024817        -0.239236        -0.107442
 C         1.434516         0.059982        -0.008931
 C         2.087893         0.814661         1.437355
 C         3.560756         0.379862         1.326207
 C         3.985510         0.679916        -0.123195
 C         3.079463         1.373975        -1.087219
 O         1.716655         0.907158        -1.171929
 C         3.582666        -0.761739         0.242355
 O         2.206648        -1.153439        -0.059700
 H        -0.324337        -1.113178         0.498414
 H        -0.655129         0.627065         0.094965
 H        -0.182189        -0.350100        -1.161626
 H         2.105892         1.956975         1.382551
 H         1.598469         0.403630         2.425664
 H         4.292823         0.452484         2.138269
 H         5.027654         0.678310        -0.291525
 H         2.984102         2.455268        -0.817439
 H         3.418748         1.374055        -2.199323
 H         4.291504        -1.616536         0.035649
