19
Iteration:  1246charge 0 multiplicity 1
 C         0.049590        -0.139963        -0.064111
 C         1.532660         0.018316         0.020735
 C         1.992990         0.731859         1.346961
 C         3.477522         0.387886         1.196033
 C         4.007460         0.680613        -0.120866
 C         3.040081         1.433356        -1.062843
 O         1.772005         0.897788        -1.099357
 C         3.544860        -0.813753         0.304117
 O         2.239853        -1.151162        -0.138009
 H        -0.286087        -1.031699         0.593275
 H        -0.372969         0.717192         0.406616
 H        -0.408422        -0.324944        -1.084846
 H         1.707484         1.806809         1.430664
 H         1.511828         0.178392         2.208868
 H         4.111529         0.518682         2.083886
 H         5.067771         0.880672        -0.406045
 H         3.036408         2.460255        -0.633777
 H         3.273640         1.511941        -2.121671
 H         4.235501        -1.628208         0.424013
