19
Iteration:  2256charge 0 multiplicity 1
 C        -0.119042        -0.173455         0.020208
 C         1.434274         0.060391         0.064969
 C         2.080364         0.675077         1.393928
 C         3.532668         0.336524         1.269517
 C         4.007428         0.717943        -0.109477
 C         3.085524         1.511348        -1.093969
 O         1.848257         0.795750        -1.305199
 C         3.542161        -0.731157         0.262978
 O         2.180506        -1.101417        -0.093109
 H        -0.324415        -1.042755         0.671117
 H        -0.658286         0.644814         0.441591
 H        -0.359636        -0.248606        -0.977698
 H         2.041893         1.717991         1.553371
 H         1.633235         0.219908         2.264168
 H         4.194983         0.081893         2.176004
 H         5.092070         0.862332        -0.240927
 H         3.076443         2.580923        -0.738463
 H         3.573874         1.426037        -2.084436
 H         4.312728        -1.495422         0.149185
