19
Iteration:  2196
 C        -0.058368        -0.342565        -0.163237
 C         1.379640         0.170075         0.069038
 C         2.067434         0.714082         1.520055
 C         3.565749         0.421009         1.302542
 C         4.009024         0.590526        -0.127451
 C         3.133593         1.192431        -1.240935
 O         1.691501         1.158515        -0.900325
 C         3.588939        -0.761241         0.276585
 O         2.259312        -1.028723        -0.243096
 H        -0.502872        -0.822158         0.688539
 H        -0.631310         0.497760        -0.587214
 H        -0.000786        -1.207116        -0.964510
 H         1.933540         1.865932         1.548541
 H         1.545429         0.196962         2.385738
 H         4.272829         0.349315         2.066970
 H         5.063188         0.810676        -0.199111
 H         3.340531         2.179397        -1.662994
 H         3.108621         0.551819        -2.209223
 H         4.229726        -1.674041         0.145588
