19
Iteration:  2432charge 0 multiplicity 1
 C        -0.087671        -0.277922        -0.145496
 C         1.417105         0.116247         0.069481
 C         2.113775         0.735696         1.330674
 C         3.532957         0.302160         1.297861
 C         4.020751         0.663543        -0.102596
 C         3.106193         1.345983        -1.096960
 O         1.687529         1.035545        -1.029170
 C         3.568503        -0.798985         0.257548
 O         2.265730        -1.076924        -0.151018
 H        -0.553977        -0.443007         0.755255
 H        -0.538746         0.500876        -0.708645
 H        -0.099485        -1.278952        -0.626653
 H         1.930087         1.818303         1.238635
 H         1.507250         0.335494         2.145586
 H         4.188563         0.454751         2.117538
 H         5.110876         0.909751        -0.127756
 H         3.165020         2.430679        -0.828885
 H         3.548989         1.180977        -2.158027
 H         4.233060        -1.663514         0.299687
