19
Iteration:  4079
 C        -0.053912        -0.231631        -0.054322
 C         1.480833         0.077213        -0.072373
 C         2.017046         0.711035         1.256275
 C         3.497402         0.371614         1.287081
 C         4.023595         0.594910        -0.101752
 C         3.120788         1.541809        -0.878211
 O         1.778481         1.010250        -1.168294
 C         3.581281        -0.796790         0.220935
 O         2.220736        -1.241906        -0.103592
 H        -0.400360        -0.852760         0.768283
 H        -0.693130         0.664894        -0.221138
 H        -0.345213        -0.687661        -1.103348
 H         1.852319         1.841723         1.151227
 H         1.514757         0.447559         2.188248
 H         4.061951         0.427054         2.203101
 H         5.058140         0.655345        -0.081354
 H         2.982402         2.487827        -0.324353
 H         3.534473         1.756717        -1.899801
 H         4.251380        -1.637046         0.319910
