19
Iteration:  1963charge 0 multiplicity 1
 C         0.010299        -0.304114        -0.144443
 C         1.446764         0.036748         0.056198
 C         1.995063         0.598793         1.442654
 C         3.467972         0.457392         1.220422
 C         3.962572         0.583348        -0.228840
 C         3.119479         1.219540        -1.371921
 O         1.767038         1.326422        -0.797262
 C         3.584331        -0.738530         0.338562
 O         2.244102        -1.118045        -0.115579
 H        -0.400757        -1.018164         0.625200
 H        -0.572730         0.660850        -0.090450
 H         0.003396        -0.751567        -1.086211
 H         1.613753         1.590217         1.559290
 H         1.573918        -0.049061         2.305908
 H         4.193659         0.685849         1.937555
 H         5.038705         0.854803        -0.269342
 H         3.523667         2.199306        -1.602701
 H         3.350861         0.535487        -2.329926
 H         4.262850        -1.643893         0.363291
