19
Iteration:   242charge 0 multiplicity 1
 C         0.037491        -0.264008        -0.093736
 C         1.473896         0.098365         0.016225
 C         1.988957         0.759458         1.340227
 C         3.468976         0.336129         1.321971
 C         4.096980         0.632946        -0.101911
 C         3.107056         1.252361        -1.154097
 O         1.662146         1.053882        -0.983990
 C         3.579736        -0.710889         0.289045
 O         2.282498        -1.068224        -0.187547
 H        -0.344501        -1.022046         0.572258
 H        -0.635567         0.470845         0.085992
 H        -0.203140        -0.646267        -1.009832
 H         1.806538         1.862991         1.388003
 H         1.391537         0.274667         2.151559
 H         3.973685         0.349941         2.263505
 H         5.137431         0.875055        -0.342283
 H         3.114408         2.280903        -1.379069
 H         3.261499         0.751662        -2.168086
 H         4.155589        -1.591786         0.321443
