19
Iteration:    87
 C        -0.045522        -0.183078        -0.219308
 C         1.483312         0.138744         0.026208
 C         1.984857         0.628095         1.445959
 C         3.526432         0.445360         1.226902
 C         3.944754         0.618895        -0.168835
 C         3.075172         1.255560        -1.152252
 O         1.703039         1.016623        -0.964210
 C         3.637803        -0.758084         0.264101
 O         2.318808        -1.093788        -0.052154
 H        -0.321946        -0.800843         0.531246
 H        -0.645097         0.690419        -0.208315
 H        -0.232731        -0.610932        -1.171134
 H         1.639190         1.753849         1.597004
 H         1.713957        -0.093322         2.238407
 H         4.215266         0.792140         2.010859
 H         5.002314         0.885550        -0.199812
 H         3.210474         2.312468        -1.136979
 H         3.354406         0.868502        -2.203455
 H         4.239317        -1.684737         0.285566
