19
Iteration:  4089charge 0 multiplicity 1
 C         0.014464        -0.241081        -0.121032
 C         1.452695         0.044172         0.061436
 C         2.012294         0.759587         1.239086
 C         3.434113         0.293171         1.240925
 C         4.062717         0.606926        -0.102660
 C         3.121569         1.516390        -0.953465
 O         1.758021         1.019407        -1.083567
 C         3.537790        -0.796066         0.265749
 O         2.234125        -1.178429        -0.149501
 H        -0.279130        -0.911300         0.646170
 H        -0.490501         0.718896         0.056351
 H        -0.170337        -0.827259        -1.083869
 H         1.829173         1.837133         1.035697
 H         1.404252         0.438229         2.065750
 H         3.982743         0.314243         2.172613
 H         5.030395         0.889283        -0.188056
 H         3.260643         2.422305        -0.494312
 H         3.483929         1.668025        -1.991493
 H         4.251835        -1.585260         0.494597
