19
Iteration:  4915
 C         0.092350        -0.250719        -0.089926
 C         1.457902         0.128425         0.007749
 C         1.991199         0.693985         1.452320
 C         3.471501         0.237555         1.276443
 C         3.951896         0.622715        -0.141045
 C         3.134925         1.433819        -1.063150
 O         1.754171         1.034451        -1.006704
 C         3.543670        -0.796103         0.191055
 O         2.207085        -1.084646        -0.207345
 H        -0.042379        -1.015712         0.646274
 H        -0.794398         0.429777        -0.037317
 H         0.076035        -0.696638        -1.164926
 H         1.744207         1.855551         1.488028
 H         1.522229         0.314028         2.386119
 H         4.246757         0.309415         2.065938
 H         5.026714         1.004344        -0.033588
 H         3.123422         2.583036        -0.756387
 H         3.552348         1.371047        -2.133927
 H         4.245421        -1.566443        -0.089269
