19
Iteration:   522charge 0 multiplicity 1
 C         0.153698         0.379729        -0.197208
 C         1.600905         0.126717        -0.081770
 C         2.468527         1.344235         0.134612
 C         3.786419         0.704077         0.522916
 C         3.198612        -0.647065         1.185715
 O         1.830960        -0.657901         1.036198
 C         4.019809        -0.725329        -0.107631
 O         3.419966        -1.030834        -1.347659
 C         2.029106        -0.788462        -1.285573
 H        -0.324247         0.760639         0.762838
 H         0.139138         1.202339        -1.020713
 H        -0.329002        -0.493507        -0.503040
 H         2.514831         1.915164        -0.811679
 H         2.091752         1.966009         0.865510
 H         4.518135         1.373982         1.046641
 H         3.593444        -0.899878         2.232466
 H         4.965181        -1.176298        -0.047430
 H         1.648005        -0.272978        -2.303057
 H         1.500814        -1.742154        -1.446702
