19
Iteration:   959
 C         0.091514         0.541679        -0.184011
 C         1.537314        -0.023516        -0.134266
 C         2.547569         1.130926        -0.389921
 C         3.824631         0.777495         0.492466
 C         3.277966        -0.421068         1.231865
 O         1.843995        -0.486319         1.164299
 C         4.028798        -0.699691        -0.029282
 O         3.381594        -0.969367        -1.272016
 C         1.986017        -1.142054        -1.046319
 H         0.276026         1.521733         0.230183
 H        -0.390285         0.653279        -1.174627
 H        -0.678490         0.086133         0.387791
 H         2.597571         1.345120        -1.520617
 H         1.995927         2.038709        -0.198438
 H         4.594857         1.484265         0.868047
 H         3.663154        -0.781552         2.192104
 H         4.933868        -1.206928         0.017102
 H         1.451325        -1.312127        -2.008278
 H         1.838568        -2.152323        -0.505529
