19
Iteration:  2862
 C         0.117170         0.331120        -0.171117
 C         1.556123         0.096780        -0.228450
 C         2.366004         0.810980        -1.277330
 C         3.689565         0.619967        -0.669832
 C         3.464362         0.483570         0.860197
 O         2.054540         0.476768         1.041003
 C         4.063588        -0.720884         0.105493
 O         3.259756        -1.857573         0.087320
 C         1.905750        -1.474901        -0.153826
 H        -0.321176        -0.287565        -1.008588
 H        -0.257703        -0.147615         0.766055
 H        -0.003824         1.367710        -0.277856
 H         2.195016         0.456466        -2.225214
 H         2.094131         1.891874        -1.152473
 H         4.557022         1.080224        -1.073232
 H         4.042943         1.047822         1.544314
 H         5.159565        -0.861944         0.179747
 H         1.631428        -1.944607        -1.118797
 H         1.340979        -1.910419         0.614597
