19
Iteration:  4041
 C        -0.010233         0.418422        -0.047817
 C         1.535435        -0.020320        -0.108078
 C         2.274135        -0.085222        -1.535862
 C         3.752397         0.178535        -1.096806
 C         3.625145         0.865264         0.300326
 O         2.242461         0.877623         0.632291
 C         4.103684        -0.561496         0.210220
 O         3.166670        -1.557740         0.786329
 C         1.842293        -1.400118         0.432489
 H        -0.428286         0.680164         0.899166
 H        -0.251435         1.359655        -0.667205
 H        -0.611889        -0.450683        -0.587935
 H         1.985980        -1.150294        -1.847485
 H         2.008527         0.626039        -2.285882
 H         4.476020         0.663020        -1.759041
 H         4.177855         1.730125         0.596135
 H         5.135728        -1.020115         0.250019
 H         1.632604        -2.100119        -0.484136
 H         1.281066        -1.812402         1.228858
