19
Iteration:  2461
 C         0.047075         0.299793        -0.163132
 C         1.576711         0.021626        -0.146940
 C         2.451163         0.938700        -1.110649
 C         3.747354         0.702648        -0.389378
 C         3.469830         0.409140         1.037532
 O         2.092689         0.224016         1.158171
 C         4.089653        -0.652537         0.075598
 O         3.160027        -1.792565        -0.196213
 C         1.880139        -1.389409        -0.566759
 H        -0.001499         1.205769        -0.836491
 H        -0.582104        -0.520156        -0.500752
 H        -0.288810         0.685523         0.832515
 H         2.419293         0.494885        -2.145196
 H         2.074160         1.999804        -1.208100
 H         4.589097         1.346303        -0.624053
 H         3.999067         0.840317         1.852404
 H         5.086870        -0.905839         0.053486
 H         1.702929        -1.586919        -1.749047
 H         1.232852        -2.072198        -0.016310
