19
Iteration:  3908charge 0 multiplicity 1
 C         0.027806         0.409835        -0.162488
 C         1.523087        -0.063767        -0.186756
 C         2.288778         0.046005        -1.464031
 C         3.750197         0.246984        -1.023399
 C         3.531082         0.780384         0.413832
 O         2.189301         0.910597         0.598866
 C         4.056283        -0.607549         0.250260
 O         3.243362        -1.708839         0.526729
 C         1.881495        -1.359464         0.589233
 H        -0.155735         0.997811        -1.081158
 H        -0.710904        -0.291095         0.065779
 H        -0.001025         1.073807         0.765841
 H         2.234640        -0.982663        -1.963381
 H         1.809412         0.703887        -2.179171
 H         4.441133         0.697592        -1.740017
 H         4.183604         1.601945         0.806052
 H         5.085491        -0.740426         0.396093
 H         1.156725        -2.229071         0.147251
 H         1.753450        -1.114924         1.652332
