19
Iteration:  3076charge 0 multiplicity 1
 C         0.009546         0.264314        -0.257788
 C         1.489599         0.055724        -0.070786
 C         2.461291         0.530919        -1.380572
 C         3.756522         0.548844        -0.718408
 C         3.583012         0.626234         0.794200
 O         2.169533         0.582424         1.095367
 C         4.073314        -0.613994         0.062572
 O         3.193127        -1.717313         0.118131
 C         1.777496        -1.486119        -0.015161
 H        -0.407149        -0.637029        -0.719712
 H        -0.548651         0.449986         0.755025
 H        -0.150073         1.148376        -0.975527
 H         2.343094        -0.343806        -2.134703
 H         2.098834         1.443453        -1.716286
 H         4.533233         1.064748        -1.203528
 H         4.173085         1.173947         1.544702
 H         5.087910        -0.955704         0.127271
 H         1.393788        -1.949930        -1.040155
 H         1.286993        -1.975633         0.868139
