19
Iteration:  2471
 C         0.016583         0.324304        -0.216438
 C         1.520045         0.026914        -0.155986
 C         2.462160         0.843821        -1.055961
 C         3.795161         0.750949        -0.431096
 C         3.508334         0.302643         1.076532
 O         2.080840         0.321965         1.212321
 C         4.052559        -0.684575         0.051557
 O         3.237760        -1.704333        -0.231385
 C         1.842971        -1.425983        -0.557251
 H        -0.298844         1.321873        -0.709662
 H        -0.546633        -0.495597        -0.732959
 H        -0.322306         0.248396         0.837375
 H         2.505076         0.259593        -2.051549
 H         2.254641         1.886996        -1.250673
 H         4.542277         1.474568        -0.735907
 H         4.037079         0.787886         1.859972
 H         5.041206        -0.995146         0.039584
 H         1.541843        -1.560776        -1.650639
 H         1.195674        -2.109064         0.048555
