19
Iteration:  4488
 C         0.042846         0.294924        -0.118324
 C         1.574555        -0.052118        -0.138272
 C         2.301980        -0.048859        -1.586411
 C         3.712640         0.107007        -1.142974
 C         3.554936         0.839702         0.289455
 O         2.220365         1.021548         0.561115
 C         3.971949        -0.585734         0.226218
 O         3.259060        -1.647264         0.807103
 C         1.848217        -1.246883         0.604714
 H        -0.333807         0.361938        -1.094519
 H        -0.570614        -0.588718         0.335518
 H         0.002210         1.250995         0.522808
 H         2.164595        -1.008362        -2.159503
 H         1.885756         0.751245        -2.118436
 H         4.572911         0.168697        -1.867036
 H         4.185781         1.675257         0.625814
 H         5.064499        -0.689590         0.428053
 H         1.242307        -2.119719         0.132732
 H         1.455801        -1.102875         1.576195
