19
Iteration:  4914
 C         0.026022         0.354824        -0.249513
 C         1.493678        -0.093145        -0.093696
 C         2.294831        -0.174216        -1.420718
 C         3.661001         0.098353        -1.060803
 C         3.651357         0.899280         0.176145
 O         2.272215         1.010091         0.581037
 C         4.104582        -0.497910         0.232500
 O         3.185361        -1.648415         0.618940
 C         1.810184        -1.265333         0.790082
 H        -0.079367         1.397417        -0.269468
 H        -0.434683         0.090724        -1.279502
 H        -0.507419        -0.145911         0.499190
 H         2.005169        -1.203532        -1.806145
 H         1.970330         0.606432        -2.124018
 H         4.423575         0.329404        -1.838342
 H         4.213203         1.860557         0.398887
 H         5.134630        -0.852682         0.263012
 H         1.294402        -2.296756         0.493913
 H         1.584943        -1.051277         1.859685
