19
Iteration:   318
 C         0.077929         0.365257        -0.181564
 C         1.584888         0.080844        -0.174340
 C         2.555521         1.315950         0.132803
 C         3.828579         0.609520         0.697509
 C         3.232619        -0.813598         1.215012
 O         1.838448        -0.742747         0.943903
 C         4.090898        -0.706626        -0.030366
 O         3.395914        -0.833901        -1.319482
 C         1.954656        -0.584557        -1.416626
 H        -0.318132         0.889006         0.642895
 H        -0.347354         0.851137        -1.039941
 H        -0.410141        -0.700506        -0.076054
 H         2.620829         1.861511        -0.806607
 H         2.079121         1.966018         0.949726
 H         4.582385         1.187691         1.174973
 H         3.426777        -1.306312         2.176369
 H         5.077870        -1.032943        -0.115790
 H         1.792225         0.095651        -2.253725
 H         1.266957        -1.442446        -1.709674
