19
Iteration:  1056
 C         0.044383         0.287375        -0.195918
 C         1.549049         0.077437        -0.126685
 C         2.369637         1.394302        -0.281295
 C         3.817769         0.819289         0.211248
 C         3.419219        -0.274677         1.217264
 O         1.972086        -0.456784         1.151820
 C         4.052791        -0.778938        -0.072896
 O         3.149377        -1.548523        -0.803966
 C         2.141949        -0.771527        -1.311962
 H        -0.520055        -0.667792         0.060528
 H        -0.467364         1.186885         0.501085
 H        -0.121410         0.492477        -1.291485
 H         2.338596         1.998338        -1.225879
 H         2.173209         2.176022         0.459216
 H         4.751020         1.414065         0.369461
 H         3.770153        -0.346785         2.201817
 H         4.997368        -1.210706        -0.223411
 H         2.465770        -0.230741        -2.197124
 H         1.344685        -1.435535        -1.630632
