19
Iteration:   630charge 0 multiplicity 1
 C         0.038490         0.430042        -0.215895
 C         1.600004         0.165591        -0.133807
 C         2.468525         1.383286         0.020077
 C         3.777138         0.752975         0.403075
 C         3.306849        -0.572808         1.220587
 O         1.898118        -0.800730         1.057998
 C         4.048380        -0.640689        -0.059744
 O         3.286056        -1.284551        -1.115418
 C         2.098270        -0.649210        -1.381973
 H        -0.383522        -0.269041        -0.955361
 H        -0.481269        -0.045962         0.730663
 H        -0.212547         1.437485        -0.351892
 H         2.304004         1.983957        -0.926306
 H         2.033180         1.978414         0.836747
 H         4.656913         1.346569         0.760827
 H         3.777582        -0.751745         2.192317
 H         5.088128        -0.932677        -0.068972
 H         2.132016         0.013929        -2.264701
 H         1.502933        -1.496628        -1.412821
