19
Iteration:  2817charge 0 multiplicity 1
 C         0.022220         0.281235        -0.171011
 C         1.540023        -0.003907        -0.109261
 C         2.384885         0.653317        -1.263303
 C         3.800574         0.594080        -0.652520
 C         3.503614         0.584882         0.898859
 O         2.140681         0.436144         1.117708
 C         4.078896        -0.676179         0.107775
 O         3.180806        -1.742820         0.067737
 C         1.844524        -1.396362        -0.361165
 H        -0.635214        -0.578812         0.099693
 H        -0.242570         1.026440         0.654367
 H        -0.225649         0.658116        -1.116734
 H         2.327884         0.130546        -2.126056
 H         2.162078         1.745826        -1.461997
 H         4.643453         1.234707        -1.014827
 H         4.087741         1.214061         1.575709
 H         5.156726        -1.006147         0.270673
 H         1.749747        -1.550459        -1.471527
 H         1.154974        -2.053418         0.120379
