19
Iteration:  4169
 C         0.050232         0.469245        -0.173122
 C         1.518821         0.004572        -0.136304
 C         2.258667        -0.059745        -1.504768
 C         3.656551         0.145802        -1.032981
 C         3.530384         0.800840         0.349257
 O         2.157584         1.015249         0.609925
 C         4.099128        -0.581983         0.250704
 O         3.318856        -1.722546         0.556814
 C         1.888942        -1.405104         0.613221
 H        -0.353277         0.503059         0.799486
 H         0.004034         1.385245        -0.662454
 H        -0.602280        -0.297670        -0.670301
 H         2.047754        -0.987221        -2.085746
 H         2.074023         0.776996        -2.192318
 H         4.331449         0.539135        -1.808279
 H         4.039786         1.614122         0.847903
 H         5.182226        -0.850676         0.455218
 H         1.325643        -2.285918         0.347396
 H         1.719878        -1.184764         1.789094
