19
Iteration:     9
 C         0.029488         0.459674        -0.134771
 C         1.552510         0.099198        -0.087803
 C         2.430670         1.171492         0.428122
 C         3.714132         0.458700         0.837612
 C         3.197576        -0.986158         1.006376
 O         1.819108        -0.933667         0.840631
 C         4.079132        -0.642744        -0.169236
 O         3.520668        -0.658172        -1.446892
 C         2.115120        -0.303055        -1.417018
 H        -0.392261         0.445399         1.044049
 H        -0.079430         1.416110        -0.666890
 H        -0.334485        -0.334345        -0.773317
 H         2.661676         2.107138        -0.178996
 H         1.939227         1.516120         1.334935
 H         4.465887         0.679893         1.545155
 H         3.447771        -1.576048         1.852469
 H         5.052616        -0.921908        -0.121307
 H         2.099474         0.614848        -2.088996
 H         1.696957        -1.221903        -1.974934
