19
Iteration:  4322
 C         0.056082         0.328461        -0.278626
 C         1.495483        -0.073863        -0.078585
 C         2.284144        -0.013658        -1.412135
 C         3.715751         0.220186        -1.044158
 C         3.587967         0.814111         0.331097
 O         2.168238         1.039394         0.620229
 C         4.090931        -0.595945         0.217583
 O         3.251298        -1.737251         0.469421
 C         1.844483        -1.297357         0.740491
 H        -0.525918         0.042029         0.581187
 H        -0.083838         1.356420        -0.432583
 H        -0.324764        -0.163691        -1.260576
 H         2.024524        -0.987586        -1.858899
 H         1.903760         0.828288        -2.013922
 H         4.505595         0.365573        -1.736067
 H         4.198187         1.716681         0.667137
 H         5.096738        -0.869613         0.410457
 H         1.269590        -2.225552         0.594592
 H         1.749273        -1.099101         1.785634
