19
Iteration:  3494
 C         0.049243         0.183304        -0.137098
 C         1.600000        -0.007824        -0.110420
 C         2.359194         0.276014        -1.501876
 C         3.807492         0.383185        -0.943733
 C         3.587383         0.789810         0.588416
 O         2.214145         0.891891         0.841911
 C         3.961355        -0.622505         0.245111
 O         3.115577        -1.749158         0.284854
 C         1.809766        -1.414941         0.305300
 H        -0.546554        -0.480150         0.581952
 H        -0.155817         1.195515         0.095423
 H        -0.214816         0.038426        -1.178291
 H         2.359805        -0.606565        -2.254081
 H         2.098117         1.196719        -1.945597
 H         4.794659         0.562272        -1.427665
 H         4.133346         1.624523         1.155595
 H         4.983027        -0.932044         0.356762
 H         1.175944        -2.135150        -0.289897
 H         1.424356        -1.413805         1.410691
