19
Iteration:    80charge 0 multiplicity 1
 C        -0.091898         0.327566        -0.117525
 C         1.563245         0.203737        -0.140471
 C         2.524167         1.326293         0.424512
 C         3.749682         0.523845         0.838942
 C         3.235008        -0.959085         1.062287
 O         1.845575        -0.976092         0.780076
 C         4.027311        -0.602096        -0.122308
 O         3.417224        -0.912002        -1.325622
 C         2.174266        -0.210447        -1.526224
 H        -0.454750        -0.154924        -0.927170
 H        -0.449771        -0.107615         0.813311
 H        -0.375875         1.406886        -0.179873
 H         2.759520         2.046901        -0.320865
 H         2.083865         1.837630         1.305478
 H         4.652120         0.896842         1.401255
 H         3.648149        -1.582724         1.869461
 H         5.176864        -0.844578        -0.131603
 H         2.433222         0.594654        -2.191804
 H         1.553456        -0.868066        -2.104647
