19
Iteration:  4056charge 0 multiplicity 1
 C         0.039714         0.435865        -0.142054
 C         1.482430        -0.059353        -0.222082
 C         2.246890        -0.061681        -1.563049
 C         3.646877         0.166549        -1.072538
 C         3.589286         0.810946         0.307856
 O         2.255532         0.895911         0.711451
 C         4.087523        -0.588627         0.187871
 O         3.296097        -1.523978         0.793171
 C         1.800972        -1.429075         0.471632
 H        -0.210849         0.197242         0.906312
 H         0.094859         1.515029        -0.311267
 H        -0.664127        -0.016755        -0.710419
 H         2.224248        -0.974912        -2.152811
 H         1.885828         0.822946        -2.216239
 H         4.468504         0.298686        -1.748141
 H         4.193145         1.723510         0.635457
 H         5.107919        -0.696524         0.403116
 H         1.499979        -2.350680        -0.125326
 H         1.275495        -1.384177         1.523005
