19
Iteration:  3657charge 0 multiplicity 1
 C         0.051397         0.377161        -0.113980
 C         1.570936        -0.030486        -0.195294
 C         2.289840         0.159383        -1.566032
 C         3.720161         0.342077        -0.990946
 C         3.539224         0.796021         0.452917
 O         2.192255         0.803927         0.819619
 C         4.088612        -0.624236         0.120816
 O         3.237238        -1.695425         0.669836
 C         1.831530        -1.456341         0.323892
 H        -0.131795         1.402651        -0.625301
 H        -0.528001        -0.267917        -0.754251
 H        -0.361873         0.483326         0.941788
 H         1.993390        -0.625812        -2.350962
 H         2.181993         1.128048        -1.935799
 H         4.521091         0.794272        -1.594701
 H         4.056798         1.568675         0.895079
 H         5.151157        -0.874903         0.408375
 H         1.504149        -2.157333        -0.518207
 H         1.067312        -1.578299         1.218913
