19
Iteration:  2373charge 0 multiplicity 1
 C         0.033589         0.228303        -0.223816
 C         1.571613         0.039460        -0.190075
 C         2.535121         0.945612        -0.979011
 C         3.834244         0.731653        -0.365615
 C         3.481025         0.303802         1.071310
 O         2.004631         0.288251         1.177152
 C         4.072976        -0.700780         0.120293
 O         3.204359        -1.687855        -0.499333
 C         1.811916        -1.411177        -0.417299
 H        -0.538241        -0.756550        -0.091295
 H        -0.200839         0.996582         0.549330
 H        -0.304825         0.666869        -1.128106
 H         2.534768         0.619389        -2.093983
 H         2.117042         1.994729        -0.780221
 H         4.737612         1.323417        -0.522999
 H         3.921065         0.761590         1.976995
 H         5.140703        -0.998974         0.167381
 H         1.406836        -1.505022        -1.467574
 H         1.175688        -1.995400         0.228447
