19
Iteration:  2150
 C         0.034258         0.292793        -0.246063
 C         1.592184         0.086462        -0.134189
 C         2.574045         0.959203        -0.942657
 C         3.780655         0.758821        -0.145806
 C         3.356318         0.153224         1.189288
 O         1.962631         0.176025         1.300783
 C         3.976396        -0.729235         0.021874
 O         3.274627        -1.564442        -0.788434
 C         1.950250        -1.367421        -0.529366
 H        -0.502103        -0.619525        -0.202331
 H        -0.253935         0.937997         0.592416
 H        -0.316355         0.967157        -1.120670
 H         2.595715         0.551666        -2.121567
 H         2.325114         2.004105        -1.093520
 H         4.603199         1.490016        -0.324775
 H         3.940855         0.238184         2.158956
 H         4.945233        -1.212705         0.228676
 H         1.401314        -1.843603        -1.394195
 H         1.712185        -1.786501         0.390594
