19
Iteration:  2661charge 0 multiplicity 1
 C        -0.038977         0.288013        -0.175020
 C         1.563836         0.028481        -0.164768
 C         2.387242         0.828125        -1.174965
 C         3.763599         0.686373        -0.546253
 C         3.587563         0.453189         0.968474
 O         2.118140         0.419684         1.130603
 C         4.042088        -0.646371         0.105164
 O         3.190325        -1.777595        -0.069184
 C         1.866015        -1.496204        -0.405308
 H        -0.205925         0.498187        -1.215860
 H        -0.529690        -0.645507         0.104893
 H        -0.276441         1.239318         0.379637
 H         2.425456         0.359592        -2.086811
 H         2.275296         1.967406        -1.409626
 H         4.570325         1.236658        -0.989175
 H         4.161722         0.606966         1.852714
 H         5.051059        -1.016486         0.290004
 H         1.700329        -1.714267        -1.463954
 H         1.253880        -2.143450         0.154400
