19
Iteration:  1077charge 0 multiplicity 1
 C         0.072811         0.372887        -0.137993
 C         1.566276         0.121072        -0.192313
 C         2.484897         1.319967        -0.281283
 C         3.691313         0.787175         0.206689
 C         3.350294        -0.276314         1.230210
 O         1.955928        -0.457861         1.091508
 C         4.051080        -0.682911        -0.042629
 O         3.281293        -1.563843        -0.827036
 C         2.033184        -0.876825        -1.284176
 H        -0.502736        -0.541364        -0.404255
 H        -0.285171         0.479614         0.988642
 H        -0.387621         1.243440        -0.638689
 H         2.522415         1.802302        -1.222470
 H         2.280865         2.240772         0.269121
 H         4.544465         1.485899         0.234083
 H         3.804082        -0.301250         2.172908
 H         5.047362        -0.965222         0.021375
 H         2.217635        -0.284140        -2.205075
 H         1.380328        -1.664038        -1.568560
