19
Iteration:  2116charge 0 multiplicity 1
 C         0.041855         0.368493        -0.277702
 C         1.534994        -0.031977        -0.114843
 C         2.529977         0.952226        -0.873938
 C         3.862772         0.786141        -0.105877
 C         3.400885         0.118117         1.173931
 O         2.007072         0.172851         1.241455
 C         3.980880        -0.677978         0.036418
 O         3.255659        -1.467415        -0.810986
 C         1.897486        -1.468798        -0.530577
 H        -0.601917         0.154844         0.549765
 H        -0.007309         1.449222        -0.379863
 H        -0.349814        -0.220048        -1.166411
 H         2.625557         0.555335        -1.999290
 H         2.194567         1.982805        -0.697039
 H         4.571056         1.571637        -0.339648
 H         3.886095         0.119856         2.175637
 H         4.989828        -1.168323         0.268752
 H         1.301331        -1.864279        -1.389959
 H         1.619295        -2.061585         0.267265
