19
Iteration:  2077
 C         0.045015         0.380293        -0.181302
 C         1.515563         0.081774        -0.161950
 C         2.438373         1.129052        -0.787520
 C         3.782386         0.804722        -0.210424
 C         3.426217         0.128494         1.103592
 O         1.999197         0.028946         1.155743
 C         4.049165        -0.686816         0.022230
 O         3.308173        -1.711066        -0.536406
 C         1.933675        -1.356048        -0.705332
 H        -0.200577         1.032654         0.693732
 H        -0.122548         0.810393        -1.194684
 H        -0.609523        -0.531360        -0.184886
 H         2.482555         1.047285        -1.842058
 H         2.184105         2.174865        -0.489772
 H         4.648304         1.494198        -0.297579
 H         3.867690         0.119142         2.143697
 H         5.038812        -0.995475         0.197340
 H         1.675226        -1.427275        -1.789222
 H         1.252632        -2.239594        -0.227054
