19
Iteration:  3454charge 0 multiplicity 1
 C        -0.035531         0.457251        -0.163044
 C         1.531266        -0.032060        -0.146646
 C         2.329874         0.366297        -1.523760
 C         3.749229         0.335559        -0.884190
 C         3.542735         0.733657         0.575564
 O         2.167580         0.796473         0.838416
 C         4.032707        -0.627210         0.147509
 O         3.276635        -1.782584         0.495117
 C         1.924218        -1.539763         0.198440
 H        -0.406051         0.882532         0.781361
 H        -0.123458         1.215845        -0.930524
 H        -0.784527        -0.381507        -0.424367
 H         1.975558        -0.368360        -2.159867
 H         1.914980         1.431245        -1.820053
 H         4.601099         0.765289        -1.426427
 H         4.122597         1.344208         1.172580
 H         5.070465        -0.936009         0.403143
 H         1.698725        -2.157491        -0.616577
 H         1.356123        -1.972148         1.125152
