19
Iteration:  4576
 C        -0.053945         0.243897        -0.190431
 C         1.547114         0.000476        -0.039885
 C         2.258294        -0.073837        -1.590589
 C         3.777875         0.028784        -1.091024
 C         3.625712         0.862943         0.241731
 O         2.211995         1.102786         0.477983
 C         4.107228        -0.625863         0.229718
 O         3.234884        -1.623178         0.722147
 C         1.834353        -1.256672         0.795508
 H        -0.301033         1.206769         0.146772
 H        -0.349195         0.144905        -1.297059
 H        -0.776644        -0.307732         0.419536
 H         2.035748        -1.046435        -2.070747
 H         1.957552         0.758787        -2.132557
 H         4.458565         0.167584        -1.881580
 H         4.218340         1.817139         0.480062
 H         5.111616        -0.799164         0.559880
 H         1.253715        -2.131238         0.381388
 H         1.510811        -1.254639         1.815107
