19
Iteration:   567
 C         0.079254         0.426283        -0.178675
 C         1.558897         0.041109        -0.036929
 C         2.618173         1.216934        -0.185053
 C         3.790201         0.603372         0.622242
 C         3.195976        -0.639456         1.178856
 O         1.782630        -0.616307         1.089277
 C         4.041775        -0.734519        -0.061246
 O         3.435078        -0.691846        -1.354574
 C         2.023455        -0.879147        -1.205967
 H        -0.629101        -0.158315         0.434273
 H        -0.279961         1.484523        -0.001281
 H        -0.220982         0.161107        -1.207350
 H         2.762628         1.460080        -1.254135
 H         2.258591         2.048909         0.298753
 H         4.643692         1.031357         1.215934
 H         3.533588        -1.147703         2.083827
 H         5.018011        -1.266605        -0.037129
 H         1.382358        -0.816084        -2.199478
 H         1.772858        -1.923297        -0.840523
