19
Iteration:   972charge 0 multiplicity 1
 C         0.166125         0.556737        -0.139961
 C         1.531885         0.017805        -0.184048
 C         2.527374         1.200265        -0.415526
 C         3.740698         0.748378         0.367446
 C         3.224233        -0.382892         1.246882
 O         1.875591        -0.553868         1.206793
 C         4.058117        -0.677048         0.002028
 O         3.413349        -1.015008        -1.225471
 C         1.906575        -1.172007        -1.091683
 H         0.002720         1.335691         0.623001
 H         0.000569         0.911511        -1.052873
 H        -0.496502        -0.236128         0.116799
 H         2.870110         1.158386        -1.489573
 H         2.264140         2.114832         0.066945
 H         4.412240         1.477857         0.868390
 H         3.655018        -0.577134         2.173406
 H         5.067467        -1.081010         0.093591
 H         1.535916        -1.010621        -2.118721
 H         1.619215        -2.139296        -0.554901
