19
Iteration:   742
 C         0.158372         0.563836        -0.149427
 C         1.553593         0.036846        -0.105071
 C         2.482769         1.261502        -0.189167
 C         3.714703         0.679035         0.559282
 C         3.201945        -0.510666         1.237222
 O         1.811652        -0.659007         1.114135
 C         4.084819        -0.643383        -0.083381
 O         3.477378        -0.980563        -1.368034
 C         1.976604        -1.006524        -1.161349
 H         0.017792         1.393279         0.556172
 H        -0.023176         0.992011        -1.148523
 H        -0.511049        -0.342572         0.055948
 H         2.714314         1.325084        -1.284785
 H         2.045825         2.158650         0.184046
 H         4.463060         1.378931         0.902818
 H         3.590543        -1.100355         2.091433
 H         5.144439        -1.019149         0.065615
 H         1.527689        -0.874852        -2.105457
 H         1.747954        -1.900156        -0.705992
