19
Iteration:  3745charge 0 multiplicity 1
 C        -0.004866         0.165196        -0.237758
 C         1.543009         0.011964        -0.099384
 C         2.383477         0.208092        -1.382752
 C         3.844577         0.286915        -0.988477
 C         3.550784         0.771636         0.496075
 O         2.193854         1.034353         0.704842
 C         4.045196        -0.655606         0.142816
 O         3.148456        -1.827362         0.254180
 C         1.808719        -1.310577         0.689271
 H        -0.430138         0.725979         0.643976
 H        -0.112318         0.825186        -1.072969
 H        -0.606082        -0.802434        -0.447957
 H         2.164565        -0.636290        -2.165244
 H         2.024137         1.117024        -1.872797
 H         4.579664         0.635188        -1.699892
 H         4.225060         1.490954         1.031961
 H         5.079670        -0.855217         0.441223
 H         1.198370        -2.073530         0.408694
 H         1.771479        -1.093231         1.826046
