19
Iteration:  2744
 C         0.037860         0.275878        -0.289864
 C         1.550322         0.093704        -0.111388
 C         2.410680         0.662748        -1.256509
 C         3.758717         0.700599        -0.529392
 C         3.474360         0.453547         0.957513
 O         2.095185         0.499282         1.215699
 C         4.046929        -0.716324         0.172980
 O         3.235565        -1.764379        -0.403486
 C         1.884672        -1.426337        -0.079747
 H        -0.463711         1.014015         0.345933
 H        -0.217109         0.689545        -1.269881
 H        -0.464921        -0.677460        -0.324969
 H         2.417529        -0.189511        -2.118575
 H         2.198537         1.605875        -1.629681
 H         4.642869         1.280425        -0.772370
 H         4.082575         0.938606         1.698686
 H         5.145797        -0.900807         0.335011
 H         1.158670        -1.933867        -0.748222
 H         1.665305        -1.746384         1.002319
