19
Iteration:  4009
 C         0.069159         0.230424        -0.120440
 C         1.594955        -0.054708        -0.200078
 C         2.222583         0.122352        -1.524073
 C         3.694465         0.082169        -1.115492
 C         3.628646         0.868074         0.385507
 O         2.267185         1.052953         0.610732
 C         3.982173        -0.580738         0.256486
 O         3.187859        -1.672290         0.727701
 C         1.857052        -1.369760         0.524185
 H        -0.051872         0.879486         0.703462
 H        -0.294351         0.638392        -1.113244
 H        -0.500811        -0.657790         0.285952
 H         1.854848        -0.684390        -2.290549
 H         2.054966         1.091031        -1.994102
 H         4.576944         0.334595        -1.703421
 H         4.275615         1.677372         0.646941
 H         5.053223        -0.953592         0.280583
 H         1.374317        -2.139411        -0.269725
 H         1.214170        -1.466221         1.454263
