19
Iteration:   982
 C         0.126375         0.526535        -0.122864
 C         1.566459         0.054333        -0.115326
 C         2.561458         1.220405        -0.399123
 C         3.695636         0.736310         0.358052
 C         3.286409        -0.377263         1.271643
 O         1.834029        -0.546080         1.176503
 C         4.073330        -0.662127        -0.008684
 O         3.383694        -1.132270        -1.198509
 C         1.964646        -1.096657        -1.117226
 H        -0.119570         1.077134         0.795197
 H        -0.109954         1.102831        -0.961793
 H        -0.528207        -0.298557        -0.233101
 H         2.833487         1.520226        -1.473782
 H         2.109038         2.148617        -0.109722
 H         4.495241         1.496969         0.510087
 H         3.702238        -0.502819         2.220804
 H         5.070322        -1.040979         0.079815
 H         1.689056        -1.004830        -2.191066
 H         1.498036        -2.121072        -0.826708
