19
Iteration:  2755charge 0 multiplicity 1
 C         0.026709         0.295568        -0.306844
 C         1.532991         0.015621        -0.159565
 C         2.441658         0.740474        -1.209840
 C         3.826006         0.625913        -0.526108
 C         3.496095         0.469954         0.969535
 O         2.103350         0.517583         1.141698
 C         4.018850        -0.614354         0.127484
 O         3.223572        -1.746824        -0.344502
 C         1.852291        -1.498901        -0.053188
 H        -0.287103         0.594264         0.735747
 H        -0.197965         0.955281        -1.141744
 H        -0.488393        -0.657430        -0.352461
 H         2.213112         0.090300        -2.246686
 H         2.000072         1.651388        -1.410047
 H         4.675751         1.170064        -0.905727
 H         4.046517         0.927984         1.756064
 H         5.000833        -1.077433         0.434469
 H         1.369430        -2.152064        -0.840159
 H         1.523936        -1.877412         0.990728
