19
Iteration:   706charge 0 multiplicity 1
 C         0.045512         0.368429        -0.163432
 C         1.573540         0.124214        -0.171653
 C         2.473511         1.308181        -0.075822
 C         3.807748         0.733969         0.469922
 C         3.293560        -0.452591         1.247724
 O         1.912382        -0.631397         1.042787
 C         4.085578        -0.735916        -0.011270
 O         3.370749        -1.218852        -1.142871
 C         1.958559        -0.720681        -1.369348
 H        -0.251503         1.417427        -0.165291
 H        -0.508802        -0.212826        -1.058633
 H        -0.377215        -0.002842         0.744755
 H         2.569302         1.808300        -1.108179
 H         2.002914         2.115335         0.597642
 H         4.638527         1.316566         0.900885
 H         3.617964        -0.966432         2.108923
 H         5.048558        -1.284243         0.114210
 H         1.980687        -0.139977        -2.332789
 H         1.313628        -1.615210        -1.463225
