19
Iteration:  4216
 C        -0.002047         0.221465        -0.117531
 C         1.526295        -0.063405        -0.144120
 C         2.236943         0.148916        -1.473211
 C         3.767700         0.220015        -1.082511
 C         3.722832         0.796763         0.286989
 O         2.311489         0.933416         0.649402
 C         4.058670        -0.678605         0.123079
 O         3.118665        -1.463126         0.797803
 C         1.775447        -1.435987         0.458683
 H        -0.360906         0.928829         0.641356
 H        -0.234742         0.595487        -1.189265
 H        -0.585706        -0.706300         0.116411
 H         2.041034        -0.788445        -2.095028
 H         1.872101         0.976046        -2.026119
 H         4.671358         0.535182        -1.562407
 H         4.352226         1.702133         0.582978
 H         5.010654        -1.021335         0.385915
 H         1.620629        -2.329642        -0.162216
 H         1.126894        -1.538800         1.425571
