19
Iteration:  1956charge 0 multiplicity 1
 C        -0.043589         0.411788        -0.240986
 C         1.524967         0.017962        -0.127502
 C         2.503003         1.023811        -0.823774
 C         3.826113         0.824135        -0.029265
 C         3.437684         0.059661         1.207499
 O         1.985428        -0.068188         1.218130
 C         4.101308        -0.662105         0.004426
 O         3.291978        -1.516193        -0.819697
 C         1.870000        -1.332033        -0.646725
 H        -0.509838        -0.102663        -1.052784
 H        -0.657270         0.385574         0.719164
 H         0.016281         1.526295        -0.607826
 H         2.750357         0.656086        -1.795636
 H         2.182385         2.112733        -0.680197
 H         4.611813         1.547770        -0.040590
 H         3.902846         0.228298         2.169903
 H         5.157478        -1.064421         0.122995
 H         1.460606        -1.621972        -1.586322
 H         1.431001        -2.086887         0.116960
