19
Iteration:  3896
 C         0.106324         0.332729        -0.130246
 C         1.545350        -0.064311        -0.181795
 C         2.297091         0.054670        -1.550707
 C         3.726072         0.270102        -1.074576
 C         3.573429         0.789909         0.319949
 O         2.152112         0.947335         0.697659
 C         4.085061        -0.616321         0.251243
 O         3.224317        -1.729835         0.599914
 C         1.811123        -1.323814         0.553191
 H        -0.354751         0.631734        -1.117580
 H        -0.477986        -0.482323         0.156097
 H         0.008073         1.231138         0.527350
 H         2.068190        -0.681399        -2.310427
 H         2.093800         1.069526        -1.853595
 H         4.486781         0.585716        -1.770529
 H         4.179009         1.557456         0.920686
 H         5.054692        -0.911066         0.527839
 H         1.209299        -2.314577         0.259088
 H         1.400844        -1.106416         1.536644
