19
Iteration:  2392charge 0 multiplicity 1
 C         0.062307         0.244674        -0.219383
 C         1.551708         0.061149        -0.115100
 C         2.412945         0.981894        -1.049141
 C         3.834482         0.755588        -0.419357
 C         3.477046         0.341645         1.061545
 O         2.129019         0.240990         1.267241
 C         3.975033        -0.668890         0.117672
 O         3.168248        -1.756881        -0.306208
 C         1.872378        -1.383942        -0.646293
 H        -0.280418        -0.756338        -0.673899
 H        -0.427622         0.502346         0.800316
 H        -0.142805         0.953386        -1.021295
 H         2.476122         0.555153        -2.186857
 H         2.325221         2.016597        -1.158184
 H         4.726359         1.355341        -0.653722
 H         4.075519         0.527225         1.998798
 H         5.026353        -1.079675         0.391519
 H         1.587686        -1.526586        -1.827038
 H         1.064188        -1.921521         0.078912
