19
Iteration:  3040charge 0 multiplicity 1
 C         0.114015         0.322740        -0.086465
 C         1.573315        -0.036565        -0.249120
 C         2.323068         0.696016        -1.335691
 C         3.672017         0.502304        -0.730968
 C         3.534202         0.704461         0.752905
 O         2.136857         0.592453         0.966460
 C         3.992097        -0.631808         0.250654
 O         3.240532        -1.841816         0.246942
 C         1.878130        -1.590011        -0.206524
 H        -0.548262        -0.432891         0.305714
 H         0.069472         1.174103         0.549706
 H        -0.255558         0.772781        -1.068412
 H         2.194853         0.417562        -2.440601
 H         2.207784         1.764519        -1.421226
 H         4.629750         0.815921        -1.219360
 H         4.057070         1.380168         1.396872
 H         5.100834        -0.855214         0.300545
 H         1.710368        -2.074582        -1.175804
 H         1.172808        -2.217986         0.508879
