19
Iteration:   356
 C         0.062647         0.545526        -0.078624
 C         1.534036         0.090079        -0.121932
 C         2.492406         1.272431         0.037702
 C         3.720849         0.585094         0.666326
 C         3.168281        -0.852290         1.140542
 O         1.745968        -0.732966         1.049455
 C         4.064460        -0.654042        -0.052098
 O         3.552188        -0.722632        -1.473944
 C         2.125669        -0.854133        -1.325661
 H        -0.432166        -0.249859         0.646955
 H        -0.019888         1.614528         0.356635
 H        -0.364833         0.497992        -1.029724
 H         2.690298         1.732834        -0.952312
 H         2.098952         2.040045         0.625419
 H         4.505589         1.147774         1.232678
 H         3.398977        -1.357575         2.060516
 H         5.170513        -1.034666        -0.068622
 H         1.597356        -0.423328        -2.235623
 H         1.980819        -1.922178        -1.201298
