19
Iteration:  2819charge 0 multiplicity 1
 C         0.032117         0.287073        -0.169219
 C         1.541619         0.000041        -0.111477
 C         2.382597         0.660675        -1.245475
 C         3.812277         0.597743        -0.647893
 C         3.515781         0.586380         0.880641
 O         2.145169         0.435267         1.116217
 C         4.083129        -0.674022         0.100454
 O         3.174864        -1.739539         0.076198
 C         1.833793        -1.415675        -0.355097
 H        -0.663813        -0.608704         0.030932
 H        -0.274007         1.001471         0.648507
 H        -0.296474         0.694195        -1.111117
 H         2.314858         0.111394        -2.226198
 H         2.145647         1.687649        -1.434444
 H         4.595412         1.261076        -0.979257
 H         3.994519         1.248203         1.581991
 H         5.125127        -1.048721         0.308293
 H         1.732015        -1.537095        -1.512980
 H         1.212260        -2.088137         0.082811
