19
Iteration:  3984charge 0 multiplicity 1
 C        -0.069909         0.209166        -0.212967
 C         1.511730         0.002666        -0.216444
 C         2.299779         0.169473        -1.487864
 C         3.763863         0.202669        -1.052681
 C         3.580442         0.730662         0.327139
 O         2.216424         1.029216         0.625778
 C         4.067797        -0.709880         0.126158
 O         3.268793        -1.716316         0.678326
 C         1.845486        -1.273585         0.693985
 H        -0.207666         1.141125         0.410693
 H        -0.411771         0.315131        -1.203499
 H        -0.668119        -0.561286         0.445572
 H         1.938211        -0.579456        -2.174897
 H         2.202106         1.105992        -1.969292
 H         4.620663         0.515891        -1.722856
 H         4.324780         1.436758         0.631259
 H         5.095067        -0.760067         0.478472
 H         1.214154        -2.184911         0.326216
 H         1.564641        -1.031586         1.666231
