19
Iteration:  4958
 C         0.068786         0.307110        -0.187868
 C         1.578149        -0.004025        -0.129405
 C         2.240595        -0.184077        -1.480716
 C         3.705682         0.139693        -1.026839
 C         3.576745         0.865228         0.303764
 O         2.207081         1.087989         0.534418
 C         4.030172        -0.631065         0.233893
 O         3.235848        -1.696352         0.545315
 C         1.851975        -1.210932         0.771753
 H        -0.175817         0.917248        -1.020803
 H        -0.595844        -0.581747        -0.390577
 H        -0.157541         0.722813         0.725963
 H         2.320499        -1.235753        -1.828569
 H         1.928591         0.492593        -2.253802
 H         4.467413         0.390136        -1.751934
 H         4.075192         1.844212         0.587750
 H         5.043561        -0.924537         0.369234
 H         1.096113        -2.038723         0.564080
 H         1.710576        -0.851714         1.786778
