19
Iteration:   421
 C        -0.006119         0.382563        -0.248546
 C         1.539997         0.110198        -0.125162
 C         2.478835         1.343504         0.135469
 C         3.800517         0.653869         0.597234
 C         3.268278        -0.715871         1.150710
 O         1.839139        -0.675613         1.079942
 C         4.102298        -0.704785        -0.114719
 O         3.412407        -1.062817        -1.337044
 C         2.051577        -0.616873        -1.328941
 H        -0.430678         0.403112        -1.258636
 H        -0.484706        -0.474933         0.252738
 H        -0.264597         1.111489         0.449319
 H         2.719746         1.983843        -0.673098
 H         2.090053         1.928006         0.889997
 H         4.590508         1.150867         1.140529
 H         3.632573        -1.127483         2.036625
 H         5.183152        -1.054906        -0.009619
 H         2.127547         0.251473        -2.069396
 H         1.403110        -1.448821        -1.595111
