19
Iteration:  1180charge 0 multiplicity 1
 C         0.016059         0.403768        -0.311057
 C         1.577875         0.144604        -0.119989
 C         2.541633         1.275540        -0.338392
 C         3.796506         0.784612         0.264001
 C         3.315460        -0.336534         1.179124
 O         1.902782        -0.250473         1.233548
 C         4.043692        -0.717624        -0.043989
 O         3.375319        -1.277937        -1.146457
 C         1.911617        -1.271058        -0.954340
 H        -0.248235         1.476743        -0.005848
 H        -0.179604         0.174669        -1.334516
 H        -0.589167        -0.177085         0.417763
 H         2.703345         1.463413        -1.386900
 H         2.191424         1.965870         0.275821
 H         4.608311         1.483988         0.362563
 H         3.837430        -0.448060         2.165433
 H         5.069294        -1.166670         0.112567
 H         1.505984        -1.275868        -1.929105
 H         1.634145        -2.090744        -0.322468
