19
Iteration:   917
 C         0.065442         0.295156        -0.255597
 C         1.580416         0.107288        -0.102680
 C         2.521155         1.359072        -0.178889
 C         3.807706         0.711772         0.376926
 C         3.306506        -0.422876         1.198479
 O         1.839098        -0.381921         1.186715
 C         4.010314        -0.783208        -0.060800
 O         3.366427        -1.199711        -1.253336
 C         2.023952        -0.928002        -1.092623
 H        -0.145622         1.202139        -0.804694
 H        -0.243024        -0.488240        -0.815279
 H        -0.371942         0.108232         0.692541
 H         2.764931         1.788649        -1.194793
 H         2.235764         2.219997         0.437060
 H         4.660622         1.404830         0.574489
 H         3.607858        -0.808040         2.168732
 H         4.871520        -1.370308         0.112854
 H         1.515610        -0.598134        -2.018119
 H         1.446911        -1.874080        -0.853451
