19
Iteration:  2050charge 0 multiplicity 1
 C         0.101257         0.308185        -0.129496
 C         1.545100         0.091414        -0.198836
 C         2.452057         1.120226        -0.841429
 C         3.764428         0.807700        -0.199363
 C         3.485747         0.218960         1.198807
 O         2.076858        -0.049847         1.210719
 C         4.032595        -0.671884         0.053873
 O         3.143345        -1.749511        -0.393410
 C         1.897192        -1.268449        -0.991315
 H        -0.204872         1.364611        -0.035995
 H        -0.264373        -0.179316        -1.035388
 H        -0.257635        -0.342009         0.686080
 H         2.459247         1.040985        -2.022806
 H         2.221911         2.102877        -0.446632
 H         4.570431         1.511357        -0.214509
 H         3.880955         0.586975         2.095312
 H         5.087563        -1.069437         0.079423
 H         1.869091        -1.078264        -2.126253
 H         1.189583        -2.077685        -0.883239
