19
Iteration:  3365charge 0 multiplicity 1
 C         0.058993         0.242528        -0.151761
 C         1.579292         0.003367        -0.160102
 C         2.430458         0.368073        -1.373207
 C         3.820035         0.406673        -0.859405
 C         3.508763         0.696408         0.621736
 O         2.112231         0.954530         0.859369
 C         4.006727        -0.644633         0.251010
 O         3.189363        -1.818625         0.128540
 C         1.816166        -1.533109         0.297105
 H        -0.253280         0.666781        -1.208109
 H        -0.521486        -0.647772        -0.154836
 H        -0.244758         1.050902         0.634080
 H         2.299882        -0.265678        -2.235084
 H         1.934976         1.391881        -1.717397
 H         4.692964         0.794978        -1.379702
 H         4.267655         1.396105         1.150370
 H         5.042415        -0.804613         0.488213
 H         1.223407        -2.132745        -0.401184
 H         1.508610        -1.722903         1.391624
