19
Iteration:  2912
 C         0.098974         0.279418        -0.214345
 C         1.550803         0.033615        -0.086620
 C         2.458774         0.500348        -1.274930
 C         3.805883         0.629252        -0.616162
 C         3.464264         0.576317         0.907711
 O         2.084377         0.639919         1.074862
 C         4.048505        -0.689204         0.162741
 O         3.192077        -1.703062        -0.293656
 C         1.790210        -1.508837        -0.028909
 H        -0.064819         1.006235        -0.982434
 H        -0.437887        -0.674837        -0.483094
 H        -0.231917         0.728140         0.765846
 H         2.484072        -0.421428        -1.979138
 H         2.036887         1.400930        -1.836205
 H         4.604404         1.393278        -0.754013
 H         4.042582         1.088616         1.681349
 H         5.086893        -1.000993         0.476545
 H         1.236201        -2.119964        -0.745458
 H         1.629028        -1.869076         1.035141
