19
Iteration:   451charge 0 multiplicity 1
 C         0.122055         0.310873        -0.110188
 C         1.600466         0.175507        -0.165317
 C         2.457667         1.387404         0.174406
 C         3.733283         0.661322         0.462192
 C         3.238872        -0.585491         1.235656
 O         1.860350        -0.756861         0.937938
 C         3.987615        -0.724131        -0.023990
 O         3.341028        -1.215385        -1.208880
 C         2.116879        -0.502735        -1.484105
 H        -0.396452         1.193280        -0.519200
 H        -0.197847        -0.587702        -0.591260
 H        -0.063062         0.138821         1.068585
 H         2.666398         2.071479        -0.649514
 H         2.096023         2.077656         1.070079
 H         4.652725         1.231201         0.727708
 H         3.545980        -0.927064         2.200514
 H         5.104391        -0.974752         0.052455
 H         2.379849         0.169146        -2.324576
 H         1.319373        -1.177031        -1.921172
