19
Iteration:  4450charge 0 multiplicity 1
 C        -0.034501         0.275807        -0.117432
 C         1.524758        -0.030613        -0.136643
 C         2.261858        -0.027094        -1.480935
 C         3.706613         0.105787        -1.103711
 C         3.660751         0.846344         0.205123
 O         2.296611         0.957662         0.603142
 C         4.072550        -0.603380         0.186370
 O         3.190167        -1.510407         0.893482
 C         1.837653        -1.380449         0.509279
 H        -0.446799        -0.207814        -1.094495
 H        -0.562263         0.165868         0.766896
 H        -0.319296         1.267115        -0.416880
 H         2.032724        -0.781292        -2.202394
 H         1.907915         0.944166        -2.021892
 H         4.489532         0.235379        -1.800584
 H         4.208928         1.804246         0.399588
 H         5.058720        -0.926212         0.394864
 H         1.582904        -2.077957        -0.345273
 H         1.331541        -1.433496         1.525724
