19
Iteration:  2053charge 0 multiplicity 1
 C         0.088692         0.315232        -0.152984
 C         1.546348         0.068480        -0.211986
 C         2.450085         1.114457        -0.850365
 C         3.786886         0.825895        -0.195379
 C         3.485434         0.188640         1.208553
 O         2.074770        -0.036479         1.228307
 C         4.033406        -0.663336         0.038545
 O         3.149890        -1.746937        -0.389537
 C         1.890291        -1.260331        -0.985377
 H        -0.117340         1.337321         0.102305
 H        -0.392635        -0.087572        -1.103392
 H        -0.358593        -0.399333         0.665827
 H         2.443235         1.122046        -1.994336
 H         2.216453         2.082101        -0.478631
 H         4.612894         1.539918        -0.228371
 H         3.952273         0.620621         2.147673
 H         5.084209        -1.052004         0.050085
 H         1.818951        -1.118031        -2.121780
 H         1.188738        -2.234091        -0.792712
