19
Iteration:  2815
 C         0.012848         0.275734        -0.163498
 C         1.537188        -0.001269        -0.110912
 C         2.390708         0.657502        -1.272065
 C         3.787093         0.592243        -0.655026
 C         3.496841         0.579522         0.910571
 O         2.134225         0.438111         1.120812
 C         4.077385        -0.674811         0.119253
 O         3.186564        -1.747861         0.058578
 C         1.858582        -1.383523        -0.369932
 H        -0.585559        -0.547338         0.154710
 H        -0.194150         1.036229         0.618669
 H        -0.177703         0.644913        -1.173602
 H         2.324113         0.091231        -2.129510
 H         2.175182         1.775264        -1.481674
 H         4.666065         1.187320        -1.048423
 H         4.167602         1.172175         1.576043
 H         5.137383        -0.954298         0.225125
 H         1.764211        -1.579962        -1.410249
 H         1.081014        -2.055180         0.187264
