19
Iteration:   773
 C         0.016034         0.417527        -0.247988
 C         1.498666         0.014905        -0.174735
 C         2.558345         1.251550        -0.161913
 C         3.881850         0.579911         0.510078
 C         3.234201        -0.507421         1.250657
 O         1.820156        -0.447713         1.200615
 C         4.061789        -0.703450        -0.083817
 O         3.409131        -0.861366        -1.324769
 C         1.977747        -1.040554        -1.140711
 H        -0.387228         0.176531         0.723625
 H        -0.006274         1.550022        -0.478248
 H        -0.470094        -0.249014        -0.973969
 H         2.798997         1.627759        -1.238046
 H         2.168579         2.106760         0.439882
 H         4.736833         1.162032         0.786919
 H         3.587267        -1.095458         2.097265
 H         5.146247        -1.088536        -0.064259
 H         1.565525        -0.940166        -2.162571
 H         1.860617        -2.097833        -0.713497
