19
Iteration:   441
 C         0.059307         0.281023        -0.107628
 C         1.540093         0.177978        -0.124493
 C         2.487491         1.370147         0.185230
 C         3.766916         0.644822         0.528618
 C         3.254170        -0.573251         1.227408
 O         1.860737        -0.681532         0.974561
 C         3.985288        -0.749049        -0.075825
 O         3.414478        -1.202543        -1.240302
 C         2.102954        -0.510739        -1.558058
 H        -0.230957         1.000239        -0.875190
 H        -0.446546        -0.629844        -0.325262
 H        -0.378749         0.611153         0.933252
 H         2.565496         2.089410        -0.600629
 H         2.167948         1.864222         1.152689
 H         4.657644         1.211104         0.848811
 H         3.552369        -1.033259         2.126015
 H         5.069416        -1.129088         0.034881
 H         2.179043         0.227089        -2.416407
 H         1.522010        -1.420630        -1.687411
