19
Iteration:  3957
 C         0.105741         0.276857        -0.229881
 C         1.555139         0.015172        -0.080991
 C         2.255528        -0.071517        -1.441011
 C         3.684414         0.271120        -1.004824
 C         3.614947         0.840742         0.357937
 O         2.250718         0.993496         0.672654
 C         4.029696        -0.591148         0.199761
 O         3.184768        -1.667484         0.415691
 C         1.788019        -1.345492         0.701479
 H        -0.122295         1.353185        -0.149068
 H        -0.113830        -0.125190        -1.289060
 H        -0.512255        -0.309802         0.378086
 H         2.098563        -1.082999        -1.913417
 H         1.983449         0.707888        -2.227956
 H         4.483834         0.291419        -1.712232
 H         4.344953         1.571497         0.766186
 H         5.094603        -0.807859         0.479498
 H         1.212382        -2.117015         0.297142
 H         1.583383        -1.060989         1.809087
