19
Iteration:    81
 C        -0.090265         0.331957        -0.109175
 C         1.561978         0.195426        -0.133693
 C         2.530388         1.328881         0.419985
 C         3.743610         0.528000         0.836667
 C         3.230725        -0.959523         1.066019
 O         1.848837        -0.973559         0.781726
 C         4.019387        -0.605541        -0.118086
 O         3.428640        -0.909841        -1.337106
 C         2.176696        -0.219077        -1.524601
 H        -0.487057        -0.123534        -0.992216
 H        -0.424625        -0.141644         0.803901
 H        -0.383540         1.406328        -0.148663
 H         2.767905         2.067446        -0.352101
 H         2.086091         1.819274         1.323413
 H         4.638715         0.883135         1.391932
 H         3.620345        -1.570203         1.873491
 H         5.146906        -0.829799        -0.101224
 H         2.414064         0.616218        -2.174597
 H         1.525373        -0.861256        -2.147617
