19
Iteration:  1577charge 0 multiplicity 1
 C        -0.024304         0.362722        -0.118854
 C         1.566162         0.086864        -0.234738
 C         2.581848         1.176313        -0.663428
 C         3.835140         0.815964         0.074692
 C         3.317707        -0.125930         1.250604
 O         1.898059        -0.093017         1.208984
 C         4.050881        -0.687398         0.057173
 O         3.372899        -1.483911        -0.949311
 C         1.906984        -1.255041        -0.865706
 H        -0.326883         0.132468         0.849342
 H        -0.173580         1.430467        -0.438867
 H        -0.554036        -0.224763        -0.884286
 H         2.709820         1.103752        -1.729198
 H         2.279052         2.148493        -0.307542
 H         4.666241         1.596615         0.045095
 H         3.771529        -0.340453         2.251657
 H         4.950128        -1.218012         0.224398
 H         1.541846        -1.421002        -2.017736
 H         1.405966        -2.105819        -0.284394
