19
Iteration:  1869charge 0 multiplicity 1
 C         0.103870         0.327982        -0.286847
 C         1.585914         0.091932        -0.114782
 C         2.437821         1.178967        -0.688486
 C         3.806579         0.838400        -0.113710
 C         3.485090         0.045862         1.167555
 O         1.999425        -0.126554         1.222665
 C         4.042233        -0.636586         0.003030
 O         3.231969        -1.706300        -0.594746
 C         1.844241        -1.250467        -0.846148
 H        -0.381584         0.102406         0.614339
 H        -0.108262         1.410500        -0.519912
 H        -0.425695        -0.346445        -1.047816
 H         2.389302         1.365419        -1.739503
 H         2.023745         2.225604        -0.300676
 H         4.676755         1.456657        -0.179134
 H         3.892903         0.203482         2.107601
 H         5.103718        -0.964811        -0.010189
 H         1.698082        -0.896721        -1.891648
 H         1.179117        -2.044415        -0.652099
