19
Iteration:  3407
 C         0.025761         0.319466        -0.200465
 C         1.504841        -0.042530        -0.132836
 C         2.394337         0.397575        -1.480067
 C         3.749116         0.439320        -0.895489
 C         3.592424         0.699240         0.561973
 O         2.211740         0.734512         0.924814
 C         4.023314        -0.631825         0.162858
 O         3.205298        -1.678736         0.430554
 C         1.779203        -1.495344         0.178711
 H        -0.271597         1.383359        -0.119630
 H        -0.452428        -0.087724        -1.045028
 H        -0.394452        -0.109955         0.691221
 H         2.348917        -0.443630        -2.231574
 H         2.145661         1.348128        -2.001178
 H         4.585685         0.762700        -1.506629
 H         4.195896         1.435767         1.205332
 H         4.993898        -1.030947         0.312796
 H         1.580935        -2.172177        -0.592076
 H         1.189919        -1.833489         1.154078
