19
Iteration:  2159
 C         0.047444         0.301680        -0.199144
 C         1.543332         0.089965        -0.164959
 C         2.509158         1.019490        -0.916979
 C         3.830651         0.762163        -0.242192
 C         3.363333         0.131317         1.179598
 O         1.980203         0.173825         1.240787
 C         3.970432        -0.686690         0.109629
 O         3.320777        -1.647017        -0.748184
 C         1.905958        -1.361397        -0.553681
 H        -0.560803        -0.525343        -0.478183
 H        -0.290109         0.660453         0.755282
 H        -0.095167         1.054876        -1.012282
 H         2.529180         0.747407        -2.039867
 H         2.204054         2.087701        -0.819920
 H         4.804034         1.237304        -0.356019
 H         3.857956         0.319939         2.182307
 H         5.040268        -1.025254         0.385232
 H         1.391474        -1.716044        -1.488183
 H         1.676566        -1.992152         0.308274
