19
Iteration:  2684charge 0 multiplicity 1
 C         0.025319         0.357012        -0.161718
 C         1.565395         0.037459        -0.226162
 C         2.408893         0.798848        -1.188206
 C         3.820245         0.635993        -0.542873
 C         3.384396         0.446670         0.906861
 O         2.006248         0.400795         1.117030
 C         4.096318        -0.658183         0.124217
 O         3.307468        -1.831054        -0.201496
 C         1.874042        -1.469987        -0.237067
 H        -0.230940         1.185147        -0.827182
 H        -0.590076        -0.563407        -0.296113
 H         0.025678         0.773708         0.842381
 H         2.402585         0.488481        -2.151506
 H         2.223035         1.968253        -1.169783
 H         4.631773         1.340630        -0.738774
 H         3.925179         1.052904         1.615067
 H         5.082455        -0.978524         0.331534
 H         1.401914        -1.980993        -1.100161
 H         1.432461        -1.823322         0.619391
