19
Iteration:  1222
 C         0.083245         0.350181        -0.074121
 C         1.523150         0.053149        -0.193697
 C         2.516444         1.231714        -0.504737
 C         3.767989         0.794233         0.154930
 C         3.337365        -0.169952         1.268915
 O         1.988107        -0.370879         1.171077
 C         4.002450        -0.695194         0.049146
 O         3.264670        -1.496813        -0.855107
 C         1.998643        -0.946247        -1.270784
 H        -0.304707         0.443646         1.007252
 H        -0.114673         1.224725        -0.703687
 H        -0.602053        -0.411897        -0.492376
 H         2.583481         1.363541        -1.582782
 H         2.305107         2.268647        -0.004500
 H         4.518228         1.536310         0.359745
 H         3.728155        -0.199775         2.324892
 H         5.075735        -1.031843         0.190804
 H         2.083604        -0.586122        -2.282380
 H         1.346935        -1.802260        -1.166878
