19
Iteration:  2586charge 0 multiplicity 1
 C         0.081262         0.357254        -0.137557
 C         1.524776         0.012991        -0.161439
 C         2.456265         0.824419        -1.150375
 C         3.798211         0.724442        -0.468888
 C         3.446402         0.476055         0.958180
 O         2.058690         0.367011         1.135434
 C         4.051272        -0.687398         0.075516
 O         3.242096        -1.774961        -0.208668
 C         1.828010        -1.519805        -0.411114
 H        -0.432498        -0.509642         0.214758
 H        -0.133224         1.230006         0.498541
 H        -0.125994         0.549641        -1.141534
 H         2.447608         0.410289        -2.141105
 H         2.190343         1.906223        -1.117324
 H         4.635156         1.361018        -0.726233
 H         3.857672         0.851136         1.875329
 H         5.079268        -1.070302         0.289690
 H         1.505652        -1.954417        -1.445546
 H         1.347201        -2.143616         0.291195
