19
Iteration:  2354
 C         0.029579         0.382235        -0.202911
 C         1.511085         0.063443        -0.175990
 C         2.477346         0.945501        -1.038437
 C         3.825563         0.749690        -0.245930
 C         3.392632         0.255502         1.085045
 O         1.990656         0.347027         1.173344
 C         4.048826        -0.740830         0.049270
 O         3.336483        -1.723232        -0.616484
 C         1.898275        -1.520557        -0.392059
 H        -0.534363        -0.312380         0.386394
 H        -0.173583         1.386952         0.104238
 H        -0.398572         0.357530        -1.232244
 H         2.435082         0.615760        -2.004047
 H         2.106437         2.002781        -0.815291
 H         4.595347         1.519723        -0.419899
 H         3.860426         0.390222         2.046078
 H         4.969906        -1.113138         0.402294
 H         1.344810        -2.092078        -1.042396
 H         1.781847        -1.997668         0.579762
