19
Iteration:  1117charge 0 multiplicity 1
 C         0.046936         0.407616        -0.153872
 C         1.531863         0.099699        -0.147030
 C         2.584130         1.170969        -0.452218
 C         3.774741         0.751880         0.323301
 C         3.310246        -0.324698         1.248295
 O         1.879693        -0.360159         1.193396
 C         4.058349        -0.671844        -0.023978
 O         3.380185        -1.249341        -1.128889
 C         1.947322        -1.106638        -1.070613
 H        -0.268447         0.344657        -1.202331
 H        -0.623845        -0.181832         0.447641
 H        -0.084583         1.442594         0.204020
 H         2.829025         1.557326        -1.500037
 H         2.085479         2.147947         0.050204
 H         4.489826         1.542341         0.482114
 H         3.629840        -0.463623         2.320356
 H         5.061672        -1.067196         0.119183
 H         1.647220        -1.114756        -2.172494
 H         1.451320        -2.034436        -0.613101
