19
Iteration:  3931
 C         0.041817         0.449913        -0.187772
 C         1.507617        -0.017747        -0.053464
 C         2.354262        -0.223702        -1.464554
 C         3.733675         0.278525        -1.017475
 C         3.568861         0.868436         0.390029
 O         2.136761         1.085439         0.710714
 C         4.104423        -0.586877         0.224110
 O         3.233354        -1.728812         0.385195
 C         1.814608        -1.417022         0.613781
 H         0.043875         1.329763        -0.804252
 H        -0.510519        -0.351771        -0.644773
 H        -0.493600         0.544723         0.810656
 H         2.304583        -1.264589        -1.984676
 H         1.987070         0.497120        -2.198584
 H         4.408688         0.572573        -1.859872
 H         4.282073         1.493547         0.853406
 H         5.158669        -0.842802         0.329648
 H         1.086872        -2.198447         0.064454
 H         1.729090        -1.319175         1.726161
