19
Iteration:  4850charge 0 multiplicity 1
 C         0.034156         0.242025        -0.112219
 C         1.527660        -0.042349        -0.062262
 C         2.182006        -0.058197        -1.440691
 C         3.685545        -0.094892        -1.130478
 C         3.633431         0.854726         0.104857
 O         2.302076         1.150641         0.491527
 C         4.043866        -0.493822         0.336741
 O         3.197774        -1.532162         0.887988
 C         1.869532        -1.390386         0.499537
 H        -0.000727         1.101064         0.602399
 H        -0.367581         0.454300        -1.169049
 H        -0.609544        -0.421319         0.348457
 H         1.845031        -0.879446        -2.189136
 H         2.087225         0.852076        -2.046592
 H         4.539782        -0.021257        -1.873073
 H         4.320431         1.740630         0.254656
 H         5.081339        -0.835830         0.504166
 H         1.626967        -2.060863        -0.320801
 H         1.190847        -1.639897         1.363457
