19
Iteration:   637
 C         0.105968         0.325617        -0.218440
 C         1.539274         0.163576        -0.141048
 C         2.446565         1.410094         0.033464
 C         3.781304         0.691328         0.379789
 C         3.346698        -0.479421         1.277025
 O         1.937073        -0.797201         1.066705
 C         4.000015        -0.691165        -0.090494
 O         3.276635        -1.314299        -1.061078
 C         2.079001        -0.571355        -1.429651
 H        -0.368788         0.032149        -1.207551
 H        -0.480908        -0.107444         0.573677
 H        -0.234552         1.404615        -0.262002
 H         2.462970         2.022967        -0.862727
 H         2.118103         2.122328         0.904439
 H         4.574254         1.287955         0.783865
 H         3.821171        -0.710283         2.295479
 H         5.052578        -0.890631        -0.151404
 H         2.200195         0.136705        -2.273277
 H         1.266295        -1.373438        -1.764172
