19
Iteration:  4930charge 0 multiplicity 1
 C         0.033291         0.345583        -0.294981
 C         1.542659         0.016522         0.018389
 C         2.189135        -0.239723        -1.392370
 C         3.735363         0.161909        -1.101442
 C         3.579050         0.865302         0.240258
 O         2.224297         1.149519         0.549874
 C         4.044493        -0.640028         0.182188
 O         3.275836        -1.675640         0.582723
 C         1.859682        -1.323382         0.785016
 H         0.037523         1.488201        -0.653981
 H        -0.255387        -0.210874        -1.143271
 H        -0.706211         0.195192         0.590471
 H         2.293560        -1.271898        -1.695453
 H         1.783072         0.422118        -2.218460
 H         4.452866         0.291861        -1.896326
 H         4.173086         1.651012         0.655860
 H         5.066356        -0.764590         0.604902
 H         1.160150        -2.055456         0.403967
 H         1.615162        -1.175568         1.867592
