19
Iteration:  3022
 C         0.113605         0.306001        -0.082988
 C         1.561574        -0.021492        -0.224947
 C         2.414396         0.754532        -1.328849
 C         3.811530         0.520664        -0.809635
 C         3.473328         0.628921         0.747735
 O         2.088053         0.556256         0.971240
 C         4.012594        -0.623010         0.171559
 O         3.190569        -1.802865         0.281666
 C         1.865338        -1.558836        -0.191338
 H        -0.276774        -0.271945         0.776155
 H         0.004893         1.414281         0.226687
 H        -0.572156        -0.029200        -0.886493
 H         2.178242         0.264722        -2.310314
 H         2.009923         1.750034        -1.143739
 H         4.660697         0.964128        -1.273070
 H         3.930595         1.307853         1.434941
 H         5.017148        -0.972780         0.395235
 H         1.740256        -2.118406        -1.229455
 H         1.241731        -2.080442         0.468838
