19
Iteration:  3107charge 0 multiplicity 1
 C         0.092277         0.317276        -0.241050
 C         1.548773        -0.049189        -0.111402
 C         2.432696         0.576696        -1.340519
 C         3.783706         0.586117        -0.715922
 C         3.476656         0.620236         0.768995
 O         2.090016         0.704866         0.946656
 C         4.024987        -0.692705         0.187319
 O         3.226140        -1.815910        -0.077683
 C         1.829236        -1.537720         0.182195
 H        -0.232506         0.007453        -1.177107
 H        -0.469111        -0.231304         0.526336
 H         0.033460         1.407222         0.013485
 H         2.263268         0.010362        -2.329835
 H         2.054193         1.501528        -1.607662
 H         4.525735         1.179055        -1.194592
 H         4.080235         1.095657         1.519924
 H         5.048671        -0.862228         0.501210
 H         1.249142        -2.189860        -0.343761
 H         1.548703        -1.624274         1.305739
