19
Iteration:   165charge 0 multiplicity 1
 C         0.150087         0.517234        -0.270455
 C         1.559792         0.084750        -0.068245
 C         2.529700         1.260493         0.267997
 C         3.689850         0.440812         0.761737
 C         3.192982        -0.960598         1.057050
 O         1.778619        -0.914155         1.006143
 C         4.049843        -0.642496        -0.152382
 O         3.482647        -0.456731        -1.432314
 C         2.052961        -0.677389        -1.301159
 H        -0.172816         1.076070         0.598161
 H        -0.017609         1.131956        -1.213032
 H        -0.475451        -0.453070        -0.322481
 H         2.807417         1.854259        -0.561493
 H         2.089041         1.900019         1.029582
 H         4.376830         1.082762         1.359562
 H         3.479505        -1.705299         1.790145
 H         5.117399        -1.102238        -0.170496
 H         1.626240        -0.057263        -2.124501
 H         1.703030        -1.717190        -1.261205
