19
Iteration:  2987
 C         0.011863         0.254180        -0.225966
 C         1.568856         0.086735        -0.125165
 C         2.376898         0.601846        -1.272850
 C         3.766453         0.591386        -0.752670
 C         3.589854         0.618282         0.874012
 O         2.179162         0.572395         1.124110
 C         4.043960        -0.646566         0.104092
 O         3.163286        -1.767251         0.087839
 C         1.818132        -1.490086        -0.136387
 H        -0.386603         0.580264         0.714726
 H        -0.370345         0.842626        -1.101733
 H        -0.397681        -0.805646        -0.568074
 H         2.220209        -0.193118        -2.139785
 H         2.108593         1.417123        -1.819146
 H         4.746975         0.949977        -1.145718
 H         4.090928         1.311738         1.513326
 H         5.133048        -0.962635         0.102310
 H         1.462890        -1.791688        -1.264731
 H         1.223201        -2.049079         0.630793
