19
Iteration:  2455
 C         0.095737         0.319440        -0.128156
 C         1.578017         0.043791        -0.186257
 C         2.418398         0.963224        -1.134003
 C         3.745209         0.732410        -0.403927
 C         3.484440         0.447031         0.986083
 O         2.084132         0.167404         1.154853
 C         4.060763        -0.650883         0.107571
 O         3.173069        -1.831931        -0.177234
 C         1.874274        -1.400014        -0.565451
 H        -0.092159         1.029107        -0.920916
 H        -0.555267        -0.520814        -0.405764
 H        -0.246856         0.820143         0.783623
 H         2.375949         0.718512        -2.180829
 H         2.059603         2.030051        -1.023844
 H         4.702141         1.245744        -0.580316
 H         3.844757         0.859247         1.966730
 H         5.140597        -1.058914         0.185685
 H         1.830572        -1.493902        -1.607159
 H         1.161963        -2.108162        -0.087485
