19
Iteration:  2593charge 0 multiplicity 1
 C         0.028744         0.370643        -0.145977
 C         1.485522         0.050365        -0.174412
 C         2.454300         0.856091        -1.165016
 C         3.802986         0.707174        -0.456571
 C         3.493271         0.473922         0.984269
 O         2.060156         0.368468         1.094172
 C         4.114943        -0.699369         0.066607
 O         3.244478        -1.839139        -0.155213
 C         1.834092        -1.541890        -0.404803
 H        -0.544788        -0.530554         0.137491
 H        -0.151818         1.046028         0.664917
 H        -0.457874         0.777753        -1.180381
 H         2.442139         0.712331        -2.251725
 H         2.055832         1.937010        -1.146662
 H         4.513378         1.498808        -0.741101
 H         3.958171         0.872493         1.912671
 H         5.191708        -0.969193         0.196457
 H         1.684631        -1.837971        -1.498068
 H         1.289115        -2.226049         0.313322
