19
Iteration:    40charge 0 multiplicity 1
 C         0.112990         0.403385        -0.183623
 C         1.572652         0.156655        -0.063929
 C         2.423372         1.293083         0.608730
 C         3.725332         0.556694         0.732040
 C         3.244910        -0.880911         1.126904
 O         1.843535        -1.079169         0.834440
 C         3.938866        -0.651902        -0.161865
 O         3.432640        -0.883578        -1.450729
 C         2.226313        -0.192835        -1.534637
 H        -0.621783        -0.496725         0.122582
 H        -0.238228         1.316264         0.310589
 H        -0.159745         0.431689        -1.246316
 H         2.440136         2.158851        -0.140345
 H         1.925622         1.552845         1.568982
 H         4.623991         1.010394         1.132242
 H         3.554021        -1.497992         1.947048
 H         4.959709        -0.952233        -0.165607
 H         2.203741         0.782289        -2.092163
 H         1.380408        -0.781426        -2.024648
