19
Iteration:  3997
 C         0.065465         0.240643        -0.109127
 C         1.532864         0.045942        -0.132410
 C         2.267093         0.206243        -1.581843
 C         3.692879         0.104368        -1.065822
 C         3.603344         0.771651         0.323665
 O         2.203181         1.011685         0.571275
 C         4.047578        -0.660895         0.237459
 O         3.254503        -1.701194         0.727155
 C         1.841525        -1.322940         0.566337
 H        -0.340563         1.071813         0.412338
 H        -0.342923         0.360304        -1.128796
 H        -0.395326        -0.794433         0.120866
 H         2.092190        -0.573388        -2.411101
 H         1.959896         1.184058        -1.883029
 H         4.473354         0.311523        -1.839635
 H         4.112437         1.516084         0.828935
 H         5.159776        -0.865464         0.413233
 H         1.282042        -2.304846         0.153581
 H         1.493841        -1.111400         1.585519
