19
Iteration:  3414charge 0 multiplicity 1
 C         0.067769         0.305425        -0.173755
 C         1.527679         0.018121        -0.127234
 C         2.363662         0.325203        -1.442371
 C         3.777233         0.443979        -0.899097
 C         3.574472         0.792566         0.548206
 O         2.228875         0.675253         0.915587
 C         4.035986        -0.642964         0.119406
 O         3.134121        -1.659375         0.454660
 C         1.783264        -1.518079         0.195317
 H        -0.116512         1.350536        -0.013744
 H        -0.276638         0.107069        -1.283483
 H        -0.531705        -0.261767         0.561000
 H         2.269466        -0.420125        -2.292523
 H         2.157473         1.225858        -1.951701
 H         4.608044         0.940843        -1.387381
 H         4.117980         1.456404         1.162686
 H         5.089663        -0.977158         0.340248
 H         1.465829        -2.076197        -0.801135
 H         1.268977        -1.917094         0.989895
