19
Iteration:  3592
 C        -0.024303         0.257412        -0.141422
 C         1.503606         0.066871        -0.124636
 C         2.336433         0.150451        -1.466979
 C         3.767075         0.318570        -0.979102
 C         3.642374         0.769960         0.596734
 O         2.236464         0.914092         0.809185
 C         4.030881        -0.627574         0.144164
 O         3.186788        -1.686568         0.474413
 C         1.833788        -1.389350         0.257406
 H        -0.352239        -0.117695        -1.175446
 H        -0.376801        -0.470199         0.537817
 H        -0.462912         1.273684         0.075438
 H         1.992289        -0.829753        -1.910260
 H         2.066140         0.951294        -2.083999
 H         4.569780         0.589802        -1.699017
 H         4.283849         1.433612         1.102944
 H         5.115217        -0.904693         0.310044
 H         1.342426        -2.174795        -0.494305
 H         1.397537        -1.562433         1.253239
