19
Iteration:   901
 C         0.058363         0.246396        -0.243634
 C         1.568539         0.161623        -0.127469
 C         2.558278         1.343052        -0.141716
 C         3.856412         0.725552         0.326414
 C         3.295363        -0.399463         1.280716
 O         1.925146        -0.448287         1.175878
 C         3.997158        -0.701558        -0.029398
 O         3.325315        -1.292677        -1.120893
 C         1.913707        -0.863736        -1.306181
 H        -0.285705         0.980796        -1.006812
 H        -0.451977        -0.781225        -0.547151
 H        -0.367469         0.642383         0.714133
 H         2.566835         1.726215        -1.155996
 H         2.183383         2.024722         0.650723
 H         4.726826         1.298775         0.576160
 H         3.744328        -0.659661         2.245967
 H         5.082921        -0.996056        -0.026378
 H         1.972477        -0.419505        -2.314601
 H         1.264097        -1.759746        -1.264574
