19
Iteration:   432
 C        -0.051165         0.304607        -0.125643
 C         1.584453         0.149659        -0.146903
 C         2.490369         1.379733         0.168422
 C         3.814453         0.642987         0.583186
 C         3.261421        -0.646166         1.190248
 O         1.852618        -0.649991         1.028663
 C         4.048541        -0.724636        -0.091046
 O         3.420823        -1.155579        -1.300619
 C         2.109379        -0.575280        -1.448208
 H        -0.280258         0.866075        -1.059399
 H        -0.494594        -0.690982        -0.153493
 H        -0.389832         1.010487         0.552074
 H         2.430416         2.072272        -0.627487
 H         2.084504         1.794877         1.025423
 H         4.566744         1.230418         1.071136
 H         3.519678        -1.024407         2.128663
 H         5.042985        -1.256833        -0.133849
 H         2.066337         0.167565        -2.334766
 H         1.410218        -1.314114        -1.831911
