19
Iteration:  3019
 C         0.089184         0.287697        -0.077037
 C         1.564484        -0.015556        -0.240079
 C         2.409625         0.727737        -1.304776
 C         3.803842         0.535687        -0.811676
 C         3.483450         0.623400         0.750558
 O         2.096493         0.554827         0.978302
 C         4.030600        -0.626915         0.157314
 O         3.176046        -1.802581         0.283174
 C         1.876820        -1.525569        -0.195664
 H        -0.284167        -0.162377         0.830830
 H        -0.029290         1.367009         0.078089
 H        -0.637878        -0.049020        -0.935488
 H         2.138963         0.290008        -2.361339
 H         2.101424         1.743723        -1.272735
 H         4.715050         1.046821        -1.211307
 H         3.985727         1.229526         1.470973
 H         5.062269        -0.965401         0.446373
 H         1.712525        -2.101455        -1.207794
 H         1.199275        -2.148819         0.519684
