19
Iteration:  3782
 C         0.047860         0.325952        -0.188227
 C         1.524270         0.001131        -0.133279
 C         2.311995         0.029335        -1.482713
 C         3.708518         0.267496        -0.996452
 C         3.578523         0.826286         0.472570
 O         2.225991         0.942502         0.786343
 C         4.060849        -0.573203         0.135940
 O         3.234267        -1.754570         0.493333
 C         1.818095        -1.361434         0.440712
 H        -0.402679         0.052173         0.734143
 H         0.043003         1.470638        -0.113361
 H        -0.554046         0.040544        -1.062878
 H         2.198572        -0.936186        -1.776087
 H         1.995838         0.772916        -2.193925
 H         4.549994         0.396573        -1.714746
 H         4.097242         1.609245         1.004336
 H         5.115653        -0.626356         0.400284
 H         1.122977        -2.111578        -0.242468
 H         1.294938        -1.483949         1.391635
