19
Iteration:  2016
 C        -0.044721         0.289715        -0.098940
 C         1.510107         0.114621        -0.220986
 C         2.466517         1.230173        -0.789961
 C         3.814961         0.716285        -0.301041
 C         3.450334         0.066485         1.156522
 O         1.989655         0.057353         1.229111
 C         4.107471        -0.693313         0.060744
 O         3.240029        -1.768988        -0.410835
 C         1.975090        -1.267079        -0.971246
 H        -0.597160         0.956475        -0.816994
 H        -0.503215        -0.661731        -0.328717
 H        -0.185680         0.545126         0.907267
 H         2.316148         1.520334        -1.883552
 H         2.263017         2.180970        -0.219679
 H         4.594155         1.475697        -0.282892
 H         3.912119         0.260977         2.089057
 H         5.103032        -1.050338         0.221937
 H         2.247248        -1.019547        -2.058172
 H         1.235259        -1.961681        -0.866633
