19
Iteration:  2547charge 0 multiplicity 1
 C        -0.006011         0.378745        -0.251737
 C         1.525985         0.034426        -0.116814
 C         2.492793         0.742735        -1.087616
 C         3.816610         0.719552        -0.336271
 C         3.445908         0.348860         0.997852
 O         2.032491         0.435969         1.191821
 C         4.098984        -0.694252         0.066210
 O         3.260056        -1.686425        -0.503113
 C         1.857970        -1.528892        -0.248419
 H        -0.730044         0.353799         0.645836
 H        -0.293495         1.322658        -0.813252
 H        -0.424286        -0.459023        -0.900899
 H         2.516542         0.149256        -2.097222
 H         2.196771         1.690675        -1.440848
 H         4.616424         1.432237        -0.563188
 H         4.105538         0.766725         1.755134
 H         5.088404        -1.014772         0.199430
 H         1.346231        -2.007348        -1.030729
 H         1.531269        -1.878067         0.822490
