19
Iteration:  4838charge 0 multiplicity 1
 C         0.049823         0.304904        -0.081708
 C         1.551692         0.046210        -0.134664
 C         2.242184        -0.067659        -1.503482
 C         3.686035        -0.098234        -1.109994
 C         3.587398         0.887423         0.109834
 O         2.266567         1.018711         0.560267
 C         4.040057        -0.571667         0.241218
 O         3.236401        -1.482429         0.944190
 C         1.848715        -1.374496         0.502535
 H        -0.311811         1.121171         0.507503
 H        -0.287930         0.586415        -1.167101
 H        -0.408548        -0.608701         0.157204
 H         1.821702        -0.995287        -2.081145
 H         1.999617         0.877357        -1.995931
 H         4.337356        -0.136796        -2.054120
 H         4.188414         1.767314         0.338261
 H         5.128988        -0.588484         0.571661
 H         1.565019        -2.184022        -0.189012
 H         1.277492        -1.548100         1.450464
