19
Iteration:  1172charge 0 multiplicity 1
 C         0.059868         0.432003        -0.362105
 C         1.510475         0.072892        -0.121983
 C         2.514839         1.262180        -0.346788
 C         3.853669         0.740812         0.275843
 C         3.348405        -0.321486         1.241994
 O         1.884647        -0.243379         1.264305
 C         4.054522        -0.729983        -0.078916
 O         3.358045        -1.215701        -1.212461
 C         1.928048        -1.267379        -0.871840
 H        -0.202739         1.477380        -0.309315
 H        -0.377829         0.006199        -1.250820
 H        -0.461259        -0.077583         0.470054
 H         2.712098         1.607103        -1.415319
 H         2.023101         2.175400         0.175546
 H         4.742155         1.362923         0.451536
 H         3.678038        -0.540033         2.230896
 H         5.030725        -1.053463         0.050237
 H         1.474201        -1.302730        -1.927871
 H         1.678316        -2.226098        -0.285205
