19
Iteration:   436charge 0 multiplicity 1
 C        -0.008087         0.285758        -0.111819
 C         1.567306         0.167385        -0.136655
 C         2.496282         1.373131         0.178190
 C         3.793350         0.638061         0.564853
 C         3.259709        -0.603296         1.200944
 O         1.856588        -0.658736         1.003933
 C         4.020096        -0.739342        -0.086533
 O         3.426858        -1.183250        -1.269934
 C         2.111586        -0.535422        -1.514621
 H        -0.223237         0.968861        -0.964801
 H        -0.506283        -0.726568        -0.240939
 H        -0.447724         0.891526         0.743230
 H         2.439898         2.119082        -0.687602
 H         2.112671         1.806438         1.155383
 H         4.608861         1.237041         0.974336
 H         3.537750        -1.069449         2.202297
 H         4.954128        -1.197983        -0.097799
 H         2.064878         0.153644        -2.341460
 H         1.461489        -1.408997        -1.775433
