19
Iteration:  4648
 C         0.075211         0.329788        -0.106903
 C         1.486355        -0.095674        -0.243583
 C         2.188398        -0.127069        -1.566594
 C         3.725967         0.029325        -1.147503
 C         3.646038         0.879379         0.138834
 O         2.245814         0.881865         0.611012
 C         4.121467        -0.544387         0.197515
 O         3.173602        -1.387135         0.977800
 C         1.838722        -1.308186         0.602341
 H        -0.133961         0.472746         1.018790
 H         0.056343         1.181449        -0.719641
 H        -0.763373        -0.356461        -0.462823
 H         1.973715        -1.078898        -2.097039
 H         1.920372         0.836588        -2.155457
 H         4.503466         0.109798        -1.920928
 H         4.165725         1.848781         0.286645
 H         5.175483        -0.826170         0.376168
 H         1.568006        -2.214131         0.118073
 H         1.262093        -1.460532         1.537996
