19
Iteration:   251
 C         0.036866         0.431309        -0.189193
 C         1.581780         0.112525        -0.193226
 C         2.390049         1.283808         0.331783
 C         3.776257         0.673487         0.664661
 C         3.279402        -0.745390         1.242513
 O         1.904304        -0.934552         0.903445
 C         4.068599        -0.684018        -0.121006
 O         3.350319        -1.056634        -1.299618
 C         2.103567        -0.367852        -1.510615
 H        -0.558519         0.408071        -1.136420
 H        -0.474673        -0.218772         0.567448
 H         0.046142         1.418125         0.335170
 H         2.591781         2.093016        -0.442228
 H         1.903430         1.658078         1.280711
 H         4.609381         1.120524         1.193541
 H         3.523937        -1.115967         2.198414
 H         5.175218        -0.948331        -0.184947
 H         2.277175         0.434688        -2.282004
 H         1.410444        -1.108807        -2.051961
