19
Iteration:  1303
 C         0.006909         0.383009        -0.286822
 C         1.549635         0.074652        -0.129486
 C         2.500207         1.235124        -0.520928
 C         3.801928         0.773107         0.183298
 C         3.415713        -0.162325         1.260768
 O         1.945482        -0.229096         1.283701
 C         4.058037        -0.710894        -0.053526
 O         3.321780        -1.434587        -0.946379
 C         1.910767        -1.137720        -0.969390
 H        -0.388768        -0.486529        -0.858120
 H        -0.545185         0.332046         0.705612
 H        -0.083976         1.279966        -0.982669
 H         2.366238         1.203859        -1.662269
 H         2.147913         2.202804        -0.141219
 H         4.744063         1.369274         0.240735
 H         3.860380        -0.345731         2.269706
 H         5.113871        -1.077683        -0.020272
 H         1.679070        -0.928891        -2.026400
 H         1.330513        -2.040956        -0.860553
