19
Iteration:  2976charge 0 multiplicity 1
 C         0.082548         0.238542        -0.256910
 C         1.555536         0.008897        -0.076476
 C         2.401841         0.596503        -1.291555
 C         3.808424         0.579033        -0.708338
 C         3.540840         0.636194         0.793356
 O         2.154572         0.595264         1.148369
 C         3.983541        -0.606857         0.114008
 O         3.199225        -1.796355        -0.004249
 C         1.789460        -1.468442        -0.085803
 H        -0.373098         0.832508         0.524450
 H        -0.027733         0.847574        -1.161795
 H        -0.510200        -0.766671        -0.209257
 H         2.269050        -0.168218        -2.165712
 H         2.143706         1.566887        -1.482889
 H         4.530700         1.150260        -1.333718
 H         4.171456         1.094047         1.535264
 H         5.034531        -0.948939         0.317462
 H         1.365080        -1.979006        -1.064592
 H         1.212297        -1.849678         0.762771
