19
Iteration:  2650
 C         0.081519         0.218078        -0.232923
 C         1.537448         0.025239        -0.130447
 C         2.388708         0.806627        -1.142828
 C         3.797842         0.693970        -0.510920
 C         3.543350         0.526138         0.924619
 O         2.183998         0.409909         1.193092
 C         4.002894        -0.692873         0.093184
 O         3.134190        -1.783366        -0.036957
 C         1.853723        -1.453369        -0.502999
 H        -0.311423         0.123363        -1.222639
 H        -0.574046        -0.350116         0.430082
 H        -0.154590         1.257736         0.167229
 H         2.380909         0.361560        -2.068201
 H         1.931267         1.891405        -1.159701
 H         4.596149         1.249494        -0.960096
 H         4.086242         1.055806         1.687631
 H         5.041861        -1.058283         0.115606
 H         1.699555        -1.652474        -1.602564
 H         1.169222        -2.031249         0.031869
