19
Iteration:   784
 C         0.017502         0.320244        -0.258578
 C         1.525041         0.134722        -0.095179
 C         2.576077         1.231274        -0.150430
 C         3.856993         0.678202         0.517916
 C         3.275503        -0.543554         1.263705
 O         1.824216        -0.435686         1.173458
 C         4.079404        -0.743367        -0.078288
 O         3.393244        -0.951283        -1.363310
 C         1.981171        -0.973939        -1.143203
 H        -0.625312        -0.123257         0.480061
 H        -0.322260         1.417055        -0.337014
 H        -0.271976        -0.025047        -1.250628
 H         2.850355         1.620410        -1.203040
 H         2.307804         2.085637         0.499219
 H         4.613737         1.412544         0.729627
 H         3.531052        -0.952830         2.266379
 H         5.046305        -1.351754        -0.048780
 H         1.507091        -0.787194        -2.129315
 H         1.561659        -1.992820        -0.790275
