19
Iteration:  3429charge 0 multiplicity 1
 C         0.128913         0.362238        -0.220495
 C         1.583128        -0.102170        -0.126661
 C         2.319643         0.269273        -1.401301
 C         3.723129         0.437238        -0.916408
 C         3.583250         0.792401         0.542933
 O         2.222842         0.693943         0.957704
 C         4.114418        -0.568027         0.155389
 O         3.151508        -1.690927         0.506356
 C         1.723295        -1.467152         0.047196
 H        -0.096400         1.231856         0.454318
 H        -0.185340         0.576503        -1.194825
 H        -0.501607        -0.412504         0.158211
 H         2.078414        -0.618075        -2.043449
 H         1.828186         1.179725        -1.772567
 H         4.459183         0.832425        -1.625772
 H         4.136675         1.693031         1.023813
 H         5.069087        -0.989435         0.291438
 H         1.522545        -2.105071        -0.766236
 H         1.016938        -1.750571         0.975888
