19
Iteration:  3475
 C         0.076934         0.307900        -0.134276
 C         1.486783         0.038753        -0.245979
 C         2.342721         0.340786        -1.422721
 C         3.765986         0.343804        -0.886950
 C         3.557874         0.694707         0.534365
 O         2.125710         0.881692         0.776004
 C         4.086522        -0.643368         0.230852
 O         3.270863        -1.811279         0.419245
 C         1.772686        -1.461689         0.259857
 H        -0.201031         0.056130         0.900036
 H        -0.059085         1.340420        -0.234690
 H        -0.581779        -0.234154        -0.870744
 H         2.261212        -0.289305        -2.268023
 H         2.076992         1.461373        -1.642083
 H         4.415553         0.840639        -1.620575
 H         4.109776         1.412109         1.053634
 H         5.156440        -0.871175         0.458288
 H         1.392722        -2.157828        -0.417335
 H         1.432104        -1.763880         1.376664
