19
Iteration:  1925
 C         0.109755         0.380184        -0.127928
 C         1.574932         0.020675        -0.191438
 C         2.535279         1.001991        -0.797425
 C         3.820588         0.724596        -0.040236
 C         3.284380         0.036234         1.181372
 O         1.851273         0.129615         1.271762
 C         3.955715        -0.717514        -0.001012
 O         3.329629        -1.431346        -0.944395
 C         2.012969        -1.432127        -0.666646
 H        -0.523387        -0.454435        -0.266670
 H        -0.109327         0.824412         0.871227
 H         0.034614         1.200623        -0.874066
 H         2.700851         0.784411        -1.816151
 H         2.153806         2.136731        -0.616571
 H         4.666561         1.380068        -0.046198
 H         3.890799         0.121580         2.118872
 H         4.914838        -1.224716         0.337346
 H         1.434263        -1.747965        -1.556642
 H         1.831128        -2.003961         0.187457
