19
Iteration:  3430charge 0 multiplicity 1
 C         0.132879         0.369514        -0.228064
 C         1.577840        -0.104395        -0.127204
 C         2.318494         0.266416        -1.399586
 C         3.714374         0.436479        -0.920230
 C         3.587153         0.787532         0.544331
 O         2.222916         0.698989         0.960575
 C         4.112441        -0.565462         0.163839
 O         3.159365        -1.691502         0.506272
 C         1.723359        -1.473642         0.044053
 H        -0.107998         1.212425         0.478847
 H        -0.190534         0.614355        -1.174324
 H        -0.511503        -0.437624         0.163657
 H         2.097784        -0.583699        -2.039802
 H         1.815741         1.211200        -1.809975
 H         4.456374         0.811691        -1.644863
 H         4.125530         1.672235         1.007135
 H         5.072566        -0.997592         0.288022
 H         1.543592        -2.101660        -0.746811
 H         1.010264        -1.746738         0.976557
