19
Iteration:  4956charge 0 multiplicity 1
 C         0.074029         0.306816        -0.202254
 C         1.590400         0.006614        -0.140409
 C         2.242687        -0.197452        -1.470515
 C         3.692460         0.128560        -1.033831
 C         3.558412         0.860820         0.319204
 O         2.204788         1.108824         0.539837
 C         4.023883        -0.631303         0.233748
 O         3.244245        -1.701381         0.545297
 C         1.854144        -1.219994         0.777583
 H        -0.120577         0.950226        -0.995636
 H        -0.600484        -0.615386        -0.456205
 H        -0.155704         0.739762         0.788702
 H         2.307076        -1.222931        -1.789230
 H         1.913937         0.474613        -2.220220
 H         4.436197         0.475683        -1.805105
 H         4.126267         1.792067         0.565760
 H         5.091569        -0.926234         0.290437
 H         1.133541        -1.959005         0.558219
 H         1.675783        -0.893061         1.778249
