19
Iteration:  3055
 C        -0.021746         0.340411        -0.177376
 C         1.516156        -0.025990        -0.170089
 C         2.334560         0.581152        -1.308630
 C         3.809168         0.567298        -0.766689
 C         3.531510         0.602892         0.760898
 O         2.148892         0.615575         1.026219
 C         4.094553        -0.675040         0.156903
 O         3.224084        -1.797839         0.243036
 C         1.894925        -1.491914        -0.168856
 H        -0.599527        -0.603366        -0.060131
 H        -0.189699         0.950455         0.800900
 H        -0.320185         0.930979        -1.079410
 H         2.152764        -0.077527        -2.208413
 H         1.909347         1.568514        -1.573715
 H         4.486767         1.204065        -1.266066
 H         4.077375         1.251308         1.459062
 H         5.107836        -0.945525         0.379918
 H         1.715932        -1.874200        -1.302758
 H         1.207272        -1.911209         0.518159
