19
Iteration:  2814
 C         0.009527         0.274244        -0.157948
 C         1.535425         0.002984        -0.113290
 C         2.394781         0.664819        -1.273164
 C         3.780054         0.592007        -0.655515
 C         3.496187         0.575387         0.914233
 O         2.130113         0.439631         1.123191
 C         4.076563        -0.672192         0.126444
 O         3.189596        -1.751240         0.053526
 C         1.865359        -1.381043        -0.372284
 H        -0.563884        -0.544231         0.180764
 H        -0.165929         1.042178         0.588637
 H        -0.161841         0.639729        -1.207901
 H         2.315570         0.048949        -2.172201
 H         2.181820         1.769926        -1.488656
 H         4.662492         1.153158        -1.062403
 H         4.195611         1.144589         1.575724
 H         5.116828        -0.928612         0.201607
 H         1.767824        -1.603856        -1.391897
 H         1.059569        -2.050740         0.216918
