19
Iteration:  3025charge 0 multiplicity 1
 C         0.130091         0.330355        -0.086007
 C         1.559440        -0.030901        -0.212454
 C         2.408896         0.766371        -1.353809
 C         3.808786         0.505734        -0.796309
 C         3.468465         0.634246         0.742592
 O         2.083426         0.559152         0.965316
 C         3.991970        -0.628470         0.190140
 O         3.209856        -1.798539         0.277611
 C         1.857648        -1.595995        -0.203201
 H        -0.252384        -0.377733         0.726557
 H         0.037237         1.351512         0.321790
 H        -0.469608         0.035798        -0.863222
 H         2.231324         0.295870        -2.241799
 H         1.949742         1.812980        -1.075758
 H         4.648741         0.909810        -1.355444
 H         3.921160         1.411860         1.432341
 H         4.995076        -0.946250         0.326608
 H         1.777853        -2.032433        -1.155199
 H         1.185235        -2.044635         0.508281
