19
Iteration:  1989
 C         0.121457         0.281074        -0.206425
 C         1.576072         0.009575        -0.129419
 C         2.424187         1.194721        -0.774032
 C         3.796600         0.834015        -0.182698
 C         3.460943         0.119646         1.192685
 O         2.020819        -0.004087         1.217944
 C         4.000784        -0.676583         0.052888
 O         3.233764        -1.747963        -0.611961
 C         1.889945        -1.261694        -0.837960
 H        -0.146733         0.400142        -1.245857
 H        -0.635766        -0.425216         0.252608
 H        -0.049441         1.326807         0.257457
 H         2.374717         1.331960        -1.831531
 H         2.029325         2.211167        -0.462855
 H         4.668105         1.476625        -0.267556
 H         3.897707         0.311516         2.208461
 H         5.046269        -1.063892         0.202644
 H         1.846237        -1.195477        -1.882919
 H         1.075702        -2.008565        -0.434895
