19
Iteration:  3100charge 0 multiplicity 1
 C         0.135074         0.282861        -0.263115
 C         1.530212         0.000232        -0.175127
 C         2.399191         0.551560        -1.330610
 C         3.758485         0.638981        -0.702811
 C         3.532665         0.621925         0.728819
 O         2.128957         0.658032         1.006844
 C         4.031078        -0.650565         0.219689
 O         3.197733        -1.831216        -0.055434
 C         1.797920        -1.517884         0.166284
 H        -0.350929        -0.157730        -1.222911
 H        -0.378844        -0.154275         0.688944
 H         0.026449         1.377224        -0.256625
 H         2.312828        -0.127986        -2.187787
 H         1.899711         1.572206        -1.515221
 H         4.589387         1.122817        -1.231693
 H         4.179905         1.194470         1.480355
 H         5.015839        -0.951270         0.521532
 H         1.124536        -2.254504        -0.539654
 H         1.559841        -1.608839         1.198840
