19
Iteration:  2739
 C         0.028564         0.278881        -0.286523
 C         1.556786         0.099955        -0.076314
 C         2.438563         0.609442        -1.242670
 C         3.753380         0.707855        -0.512714
 C         3.448389         0.460277         0.940186
 O         2.075678         0.514135         1.222876
 C         4.054637        -0.756731         0.144741
 O         3.256777        -1.744671        -0.402001
 C         1.863633        -1.407920        -0.089446
 H        -0.403571         1.070543         0.357170
 H        -0.003474         0.549178        -1.425492
 H        -0.543210        -0.683467        -0.094090
 H         2.577775        -0.025140        -2.019947
 H         2.187727         1.654138        -1.755556
 H         4.500777         1.456603        -0.924912
 H         4.066250         0.883100         1.776663
 H         5.076330        -1.057297         0.194901
 H         1.205953        -1.975688        -0.794846
 H         1.707360        -1.719836         0.904004
