19
Iteration:  1278charge 0 multiplicity 1
 C         0.112592         0.296508        -0.264169
 C         1.568227         0.085885        -0.163661
 C         2.458400         1.363145        -0.382484
 C         3.814155         0.868760         0.085080
 C         3.418412        -0.138134         1.190391
 O         1.960954        -0.287949         1.227889
 C         4.019231        -0.755754        -0.008472
 O         3.219821        -1.599662        -0.811658
 C         1.945710        -1.060543        -1.102710
 H        -0.434229        -0.740212        -0.284529
 H        -0.212759         0.873284         0.598329
 H        -0.033659         0.788769        -1.285216
 H         2.255389         1.733290        -1.430292
 H         2.150217         2.170676         0.465753
 H         4.696910         1.519193         0.042956
 H         3.773311        -0.055847         2.181383
 H         4.999555        -1.100019         0.011160
 H         2.015334        -0.671895        -2.203869
 H         1.272380        -1.896345        -1.135274
