19
Iteration:  1633
 C         0.026947         0.278685        -0.219639
 C         1.567976         0.112215        -0.159011
 C         2.415599         1.314301        -0.565076
 C         3.782842         0.832516        -0.091260
 C         3.449177        -0.008454         1.167637
 O         2.061667        -0.253426         1.181337
 C         4.020286        -0.734472        -0.033372
 O         3.152820        -1.680404        -0.473178
 C         1.992714        -1.082274        -1.034536
 H        -0.545167        -0.607987        -0.077402
 H        -0.369386         1.178356         0.334564
 H         0.021012         0.472940        -1.294303
 H         2.259023         1.482478        -1.691191
 H         2.146956         2.250681        -0.152682
 H         4.812562         1.279061        -0.001929
 H         3.971139         0.088053         2.144281
 H         5.059603        -1.035946        -0.131947
 H         2.363232        -0.540599        -2.062042
 H         1.195771        -1.839880        -1.294319
