19
Iteration:  1063charge 0 multiplicity 1
 C         0.010956         0.307534        -0.175107
 C         1.534857         0.103808        -0.170722
 C         2.384463         1.404263        -0.274497
 C         3.833540         0.755859         0.193575
 C         3.401194        -0.249901         1.218354
 O         1.964057        -0.456423         1.146708
 C         4.081433        -0.723177        -0.079247
 O         3.172265        -1.560245        -0.800075
 C         2.113510        -0.806829        -1.294893
 H        -0.494283        -0.617062        -0.158498
 H        -0.104397         0.917681         0.672964
 H        -0.196646         0.829021        -1.123749
 H         2.438865         1.612513        -1.326941
 H         1.912960         2.070615         0.501587
 H         4.702868         1.318684         0.478037
 H         3.673582        -0.420508         2.312446
 H         5.142244        -0.972093        -0.277313
 H         2.509115        -0.161721        -2.146034
 H         1.326993        -1.476906        -1.623907
