19
Iteration:  1017
 C         0.014637         0.286961        -0.183892
 C         1.587885         0.149755        -0.130303
 C         2.528587         1.419403        -0.231034
 C         3.784233         0.766874         0.274958
 C         3.375746        -0.329685         1.215793
 O         1.876485        -0.382599         1.153283
 C         4.063141        -0.754937        -0.080988
 O         3.286018        -1.458149        -0.985133
 C         2.017577        -0.910230        -1.274021
 H        -0.413240         0.034221         0.782991
 H        -0.261329         1.193526        -0.456020
 H        -0.342362        -0.450843        -0.880850
 H         2.387943         1.890247        -1.204136
 H         2.189572         1.920384         0.678886
 H         4.637568         1.444064         0.374300
 H         3.751003        -0.384066         2.242212
 H         5.112813        -1.202004         0.043474
 H         1.944618        -0.364709        -2.240356
 H         1.347901        -1.825753        -1.260862
