19
Iteration:  4252
 C         0.092700         0.324435        -0.064502
 C         1.545636         0.039917        -0.146618
 C         2.232945         0.140023        -1.564373
 C         3.672124         0.018188        -1.048995
 C         3.561497         0.801105         0.287344
 O         2.199260         1.034028         0.624481
 C         4.000676        -0.580442         0.294242
 O         3.286934        -1.637897         0.794603
 C         1.907426        -1.501968         0.372556
 H         0.009635         1.256312         0.768382
 H        -0.378907         0.762022        -1.071881
 H        -0.526608        -0.543383         0.063538
 H         1.936629        -0.690787        -2.196803
 H         1.959289         1.157090        -2.004680
 H         4.623506         0.134249        -1.671455
 H         3.982698         1.723160         0.467191
 H         5.076416        -0.821744         0.558531
 H         1.551284        -2.234854        -0.457336
 H         1.257992        -1.594232         1.175361
