19
Iteration:  2197
 C         0.046915         0.329842        -0.199092
 C         1.555816         0.001540        -0.238490
 C         2.424874         1.114750        -0.864563
 C         3.816894         0.787007        -0.286346
 C         3.464845         0.220275         1.113797
 O         2.071921         0.070763         1.220052
 C         4.002473        -0.638009         0.050953
 O         3.228233        -1.793566        -0.335811
 C         1.902444        -1.344820        -0.766092
 H        -0.433394         0.019528        -1.195301
 H        -0.505628        -0.165312         0.657699
 H        -0.063451         1.388005         0.002531
 H         2.443412         1.026065        -2.015175
 H         2.034535         2.147492        -0.683463
 H         4.661692         1.382653        -0.598238
 H         3.957201         0.554859         1.972981
 H         5.035755        -0.827249         0.044818
 H         1.782031        -1.308662        -1.877802
 H         1.134668        -1.957051        -0.296504
