19
Iteration:  3282
 C         0.046076         0.325011        -0.179644
 C         1.561537        -0.028690        -0.165599
 C         2.337058         0.463151        -1.410154
 C         3.757106         0.401430        -0.820964
 C         3.531374         0.708499         0.638149
 O         2.133728         0.789815         0.891672
 C         4.114258        -0.609057         0.199984
 O         3.246658        -1.801220         0.267315
 C         1.801326        -1.560312         0.133850
 H        -0.643516        -0.440195        -0.021296
 H        -0.142226         1.173274         0.506195
 H        -0.347224         0.708766        -1.127148
 H         2.153113        -0.146552        -2.338230
 H         2.094917         1.518961        -1.503554
 H         4.527668         1.059126        -1.277133
 H         4.115750         1.410479         1.275354
 H         5.058331        -0.974550         0.561337
 H         1.394954        -2.305657        -0.652562
 H         1.342308        -1.853617         1.167194
