19
Iteration:  2959
 C         0.062859         0.332548        -0.248759
 C         1.556034        -0.044715        -0.150886
 C         2.360858         0.615078        -1.260203
 C         3.791808         0.644454        -0.675608
 C         3.493830         0.550642         0.799825
 O         2.094385         0.647756         1.018184
 C         4.068146        -0.707999         0.177988
 O         3.233348        -1.797374        -0.136999
 C         1.841538        -1.564952         0.074216
 H        -0.065086         1.245662         0.364840
 H        -0.134790         0.553461        -1.330678
 H        -0.525776        -0.451165         0.126631
 H         2.261743         0.193053        -2.219454
 H         2.022782         1.776350        -1.231156
 H         4.590665         1.265876        -1.000557
 H         4.026759         1.172392         1.522213
 H         5.073850        -0.979875         0.460749
 H         1.301678        -2.039135        -0.688169
 H         1.524200        -1.882490         1.170925
