19
Iteration:  2463
 C         0.032753         0.303177        -0.183430
 C         1.568400         0.015706        -0.140391
 C         2.460225         0.918509        -1.105063
 C         3.754261         0.705124        -0.396299
 C         3.465889         0.387631         1.055596
 O         2.094630         0.245193         1.164019
 C         4.083064        -0.661775         0.066896
 O         3.168997        -1.772830        -0.200359
 C         1.875591        -1.395865        -0.569404
 H        -0.021349         1.187013        -0.765597
 H        -0.559794        -0.491697        -0.520630
 H        -0.296863         0.614185         0.860614
 H         2.443966         0.444033        -2.038449
 H         2.088458         2.043200        -1.239206
 H         4.558770         1.398165        -0.657912
 H         4.061263         0.850587         1.840247
 H         5.138368        -0.892789         0.018526
 H         1.651336        -1.594935        -1.749967
 H         1.253567        -2.035062        -0.016494
