19
Iteration:  2731charge 0 multiplicity 1
 C         0.036946         0.277261        -0.276192
 C         1.524457         0.051396        -0.052582
 C         2.498671         0.595959        -1.188316
 C         3.783698         0.709976        -0.476590
 C         3.456082         0.458094         0.932579
 O         2.039419         0.555458         1.197849
 C         4.063747        -0.728749         0.067763
 O         3.251409        -1.714415        -0.399835
 C         1.838820        -1.419289        -0.099594
 H        -0.251346         1.251397         0.211866
 H         0.009957         0.241907        -1.415777
 H        -0.523843        -0.437719         0.190824
 H         2.647333        -0.174795        -2.091807
 H         2.098845         1.487853        -1.623935
 H         4.316623         1.568447        -0.965735
 H         4.019225         0.768583         1.834829
 H         5.068624        -1.239680         0.173399
 H         1.337917        -2.054130        -0.940838
 H         1.612604        -1.834573         0.852755
