19
Iteration:  3771
 C         0.071842         0.250441        -0.209348
 C         1.570488         0.022495        -0.097770
 C         2.280770         0.043146        -1.451332
 C         3.716331         0.259573        -1.006391
 C         3.601998         0.795563         0.511375
 O         2.253125         1.022937         0.769225
 C         4.049305        -0.580035         0.239751
 O         3.192087        -1.745369         0.373656
 C         1.763558        -1.358536         0.494889
 H        -0.488423         0.169662         0.684975
 H        -0.058223         1.290151        -0.643412
 H        -0.306043        -0.479153        -0.927980
 H         2.122088        -0.842365        -1.960801
 H         1.848509         0.807933        -2.081120
 H         4.441214         0.690754        -1.715725
 H         4.290867         1.567650         0.823007
 H         5.082053        -0.886562         0.316318
 H         1.267955        -2.174063        -0.207052
 H         1.450474        -1.394789         1.538147
