19
Iteration:  3288charge 0 multiplicity 1
 C         0.071452         0.363109        -0.221972
 C         1.530923        -0.033774        -0.160593
 C         2.342788         0.441943        -1.359920
 C         3.764889         0.433194        -0.819337
 C         3.531854         0.718175         0.663529
 O         2.160228         0.797751         0.858255
 C         4.075987        -0.633548         0.227702
 O         3.244124        -1.818100         0.228547
 C         1.809616        -1.602760         0.154498
 H        -0.725869        -0.466289         0.022903
 H        -0.212345         1.005025         0.620100
 H        -0.181181         0.901182        -1.210199
 H         2.097084        -0.130396        -2.222687
 H         1.904361         1.501293        -1.456724
 H         4.472085         1.067487        -1.305385
 H         4.013903         1.612827         1.129605
 H         5.141459        -0.851083         0.459281
 H         1.384946        -2.402675        -0.492744
 H         1.532154        -1.782197         1.139832
