19
Iteration:  3773
 C         0.069927         0.247176        -0.210755
 C         1.565796         0.026429        -0.108815
 C         2.289481         0.041774        -1.458628
 C         3.714862         0.254321        -1.003996
 C         3.601451         0.795363         0.516108
 O         2.257461         1.015155         0.773332
 C         4.048686        -0.562264         0.229144
 O         3.197543        -1.753799         0.386118
 C         1.761452        -1.355479         0.490580
 H        -0.518209         0.175450         0.703407
 H         0.001034         1.316704        -0.552870
 H        -0.346479        -0.389603        -0.922009
 H         2.107806        -0.903762        -1.911552
 H         1.815034         0.819840        -2.099471
 H         4.437160         0.655292        -1.731835
 H         4.222949         1.562309         0.825515
 H         5.135203        -0.839043         0.300820
 H         1.266166        -2.154121        -0.217622
 H         1.405796        -1.411344         1.497091
