19
Iteration:  4826charge 0 multiplicity 1
 C         0.041260         0.336243        -0.134718
 C         1.515091        -0.051728        -0.187023
 C         2.201870        -0.068736        -1.567961
 C         3.660888         0.012964        -1.128935
 C         3.668316         0.838828         0.149982
 O         2.228901         0.988443         0.607747
 C         4.075768        -0.623375         0.187076
 O         3.247400        -1.432269         0.979146
 C         1.840883        -1.331476         0.595357
 H        -0.119764         0.934659         0.698376
 H        -0.414006         0.763553        -1.143711
 H        -0.534022        -0.560869         0.049604
 H         1.909534        -1.082204        -2.084467
 H         2.010859         0.692527        -2.324725
 H         4.586701         0.249130        -1.759491
 H         4.268906         1.687731         0.348654
 H         5.179109        -0.962262         0.295696
 H         1.680297        -2.237477        -0.044021
 H         1.187735        -1.345698         1.503633
