19
Iteration:  1515charge 0 multiplicity 1
 C         0.063748         0.426324        -0.364620
 C         1.516828         0.053679        -0.127728
 C         2.501110         1.204359        -0.514930
 C         3.788440         0.767484         0.054684
 C         3.371991        -0.114511         1.228593
 O         1.901385        -0.101080         1.295678
 C         4.070080        -0.742822        -0.053186
 O         3.346272        -1.445777        -1.009071
 C         1.968084        -1.342496        -0.763171
 H        -0.524328         0.618494         0.616470
 H         0.050119         1.414075        -0.917895
 H        -0.583738        -0.329008        -0.838416
 H         2.530711         1.362981        -1.700752
 H         2.097215         2.105024        -0.017266
 H         4.532744         1.607085         0.144931
 H         3.892226        -0.068014         2.227678
 H         5.106817        -1.038950         0.061990
 H         1.444033        -1.434968        -1.668867
 H         1.547627        -2.164769        -0.149028
