19
Iteration:  2363
 C         0.013454         0.322015        -0.224603
 C         1.511907         0.009232        -0.184863
 C         2.470858         0.927427        -0.964477
 C         3.865118         0.727429        -0.273363
 C         3.399163         0.285033         1.062107
 O         2.006828         0.338602         1.159798
 C         4.100367        -0.711205         0.079938
 O         3.271826        -1.735780        -0.572054
 C         1.850413        -1.437654        -0.413328
 H        -0.552371        -0.525961         0.275540
 H        -0.151237         1.164651         0.452362
 H        -0.285256         0.451881        -1.235966
 H         2.596251         0.796165        -2.060747
 H         2.277574         2.070748        -0.957013
 H         4.602549         1.534824        -0.403677
 H         3.912960         0.669551         1.954867
 H         5.111875        -1.119488         0.197908
 H         1.386408        -1.934474        -1.246296
 H         1.524856        -1.865872         0.508807
