19
Iteration:  2285charge 0 multiplicity 1
 C         0.045521         0.267578        -0.201703
 C         1.590682         0.087821        -0.143172
 C         2.484089         0.980963        -1.027907
 C         3.827713         0.745817        -0.283427
 C         3.440470         0.259909         1.128432
 O         1.979906         0.186884         1.222810
 C         4.018054        -0.661401         0.061604
 O         3.250578        -1.709361        -0.495518
 C         1.862476        -1.361219        -0.554016
 H        -0.258469         1.221623         0.375202
 H        -0.250409         0.401075        -1.288894
 H        -0.521393        -0.545298         0.157860
 H         2.601137         0.591918        -2.108293
 H         2.281159         2.084479        -0.880904
 H         4.722694         1.315523        -0.503266
 H         4.056026         0.494273         2.009867
 H         5.092873        -1.028996         0.153088
 H         1.535317        -1.715849        -1.570147
 H         1.241431        -1.937552         0.136848
