19
Iteration:  2190charge 0 multiplicity 1
 C         0.032703         0.323592        -0.198909
 C         1.506402         0.025749        -0.246146
 C         2.451389         1.062612        -0.848178
 C         3.808379         0.801979        -0.252277
 C         3.475188         0.229484         1.086516
 O         2.042928         0.133086         1.209436
 C         4.024692        -0.663734         0.034213
 O         3.230259        -1.785489        -0.400372
 C         1.926983        -1.366244        -0.752579
 H        -0.531039        -0.085577        -1.065914
 H        -0.363905         0.000565         0.752741
 H         0.023001         1.409317        -0.247250
 H         2.462700         1.069616        -1.858987
 H         2.109847         1.998409        -0.352522
 H         4.679185         1.456938        -0.331225
 H         3.975970         0.644279         2.002424
 H         5.132355        -0.973897         0.154226
 H         1.596283        -1.516769        -1.781729
 H         1.253736        -2.179045        -0.215516
