19
Iteration:  1706charge 0 multiplicity 1
 C        -0.033536         0.419771        -0.191489
 C         1.492762         0.039300        -0.161726
 C         2.571178         1.012350        -0.781325
 C         3.834825         0.816607         0.071162
 C         3.375978        -0.076757         1.283076
 O         1.971612        -0.076605         1.214333
 C         4.054631        -0.670067         0.039393
 O         3.327274        -1.400307        -0.886372
 C         1.874967        -1.308126        -0.825825
 H        -0.422343         0.289175        -1.157723
 H        -0.548718        -0.190047         0.609737
 H         0.030698         1.512897         0.045496
 H         2.861603         0.916704        -1.766146
 H         2.176100         2.077960        -0.705376
 H         4.686749         1.577965         0.014452
 H         3.817447        -0.198366         2.313930
 H         5.012855        -1.120204         0.160889
 H         1.468446        -1.529589        -1.919662
 H         1.501934        -2.149135        -0.178896
