19
Iteration:   568charge 0 multiplicity 1
 C         0.081388         0.431544        -0.168547
 C         1.566599         0.041465        -0.039011
 C         2.617049         1.217756        -0.185617
 C         3.789105         0.604952         0.614058
 C         3.190699        -0.634231         1.185609
 O         1.777420        -0.621307         1.086325
 C         4.035928        -0.731093        -0.057807
 O         3.438293        -0.694709        -1.351743
 C         2.019147        -0.876659        -1.208929
 H        -0.606805        -0.195045         0.399755
 H        -0.216054         1.463925         0.016516
 H        -0.222932         0.176046        -1.238367
 H         2.762997         1.456377        -1.249304
 H         2.232018         2.059537         0.324206
 H         4.652393         1.020471         1.176070
 H         3.557897        -1.152990         2.029496
 H         5.037300        -1.268974        -0.008636
 H         1.386784        -0.836391        -2.163569
 H         1.782923        -1.952460        -0.869162
