19
Iteration:  2893charge 0 multiplicity 1
 C        -0.014623         0.247329        -0.230391
 C         1.521398        -0.028286        -0.142089
 C         2.467428         0.510051        -1.231805
 C         3.845425         0.662728        -0.596875
 C         3.557457         0.618058         0.914246
 O         2.154756         0.617264         1.091132
 C         4.018603        -0.626450         0.186647
 O         3.175318        -1.742014        -0.199289
 C         1.795317        -1.486087        -0.104329
 H        -0.299591         0.606951        -1.218284
 H        -0.643664        -0.628742         0.135821
 H        -0.339686         1.008545         0.426025
 H         2.438498         0.033719        -2.129037
 H         2.079731         1.618720        -1.485772
 H         4.629086         0.920420        -1.310327
 H         4.210651         1.063724         1.614152
 H         5.081705        -0.986372         0.323447
 H         1.447930        -1.843191        -1.031800
 H         1.244351        -2.195762         0.742548
