19
Iteration:  3659charge 0 multiplicity 1
 C         0.053007         0.374435        -0.117678
 C         1.585330        -0.008322        -0.184456
 C         2.283460         0.131147        -1.556579
 C         3.723180         0.338512        -0.995611
 C         3.539471         0.801196         0.451544
 O         2.192951         0.796238         0.819743
 C         4.090132        -0.616401         0.141316
 O         3.228302        -1.697144         0.655004
 C         1.825339        -1.447320         0.315599
 H        -0.096963         1.398398        -0.555437
 H        -0.472552        -0.228794        -0.775111
 H        -0.383582         0.431156         0.945792
 H         2.052665        -0.656558        -2.277268
 H         2.089644         1.098264        -1.921911
 H         4.488404         0.811568        -1.598633
 H         4.088049         1.637825         0.875609
 H         5.137560        -0.849828         0.382175
 H         1.472392        -2.202107        -0.567718
 H         1.111461        -1.533107         1.139660
