19
Iteration:  4414charge 0 multiplicity 1
 C         0.099314         0.385758        -0.183740
 C         1.556475        -0.037599        -0.131024
 C         2.171867        -0.062239        -1.504381
 C         3.649332         0.123490        -1.048357
 C         3.563427         0.862184         0.305415
 O         2.221596         1.007328         0.598364
 C         4.039653        -0.582339         0.203424
 O         3.257230        -1.626187         0.831828
 C         1.924587        -1.422807         0.510667
 H        -0.553902        -0.431492        -0.157837
 H        -0.233513         1.102054         0.600568
 H         0.077612         0.861311        -1.103387
 H         1.848854        -0.908660        -2.188678
 H         1.998781         0.938378        -1.947073
 H         4.397088         0.352672        -1.814364
 H         4.186426         1.771934         0.339944
 H         5.127791        -0.774539         0.247486
 H         1.663518        -2.216797        -0.146908
 H         1.195715        -1.609226         1.358443
