19
Iteration:   275charge 0 multiplicity 1
 C         0.094149         0.421225        -0.145526
 C         1.535028         0.115503        -0.054207
 C         2.359022         1.373197         0.317378
 C         3.734585         0.666778         0.573592
 C         3.259668        -0.775200         1.111734
 O         1.818765        -0.844773         0.932678
 C         4.086681        -0.675733        -0.154925
 O         3.457273        -1.150776        -1.312403
 C         2.117452        -0.408998        -1.422607
 H         0.044053         1.167599        -0.897669
 H        -0.426883        -0.414096        -0.592359
 H        -0.458449         0.717310         0.856983
 H         2.450513         2.176564        -0.334811
 H         2.013878         1.683138         1.321900
 H         4.575686         1.123428         1.036426
 H         3.586978        -1.289159         2.011515
 H         5.116076        -0.878834        -0.047262
 H         2.307612         0.506282        -2.079072
 H         1.549934        -1.136104        -2.065192
