19
Iteration:  3590
 C        -0.015386         0.269580        -0.144439
 C         1.483635         0.073335        -0.128662
 C         2.328481         0.143703        -1.470989
 C         3.771024         0.321882        -0.964752
 C         3.632233         0.774132         0.606317
 O         2.245352         0.906609         0.793507
 C         4.052108        -0.623488         0.141427
 O         3.193001        -1.692658         0.463001
 C         1.822242        -1.391007         0.263823
 H        -0.373260        -0.142964        -1.145783
 H        -0.407940        -0.487465         0.616475
 H        -0.396825         1.268924         0.024647
 H         2.064368        -0.860966        -1.965187
 H         2.012231         0.949307        -2.057960
 H         4.548345         0.592072        -1.704064
 H         4.303006         1.446941         1.195242
 H         5.098585        -0.857235         0.311544
 H         1.302754        -2.179419        -0.486479
 H         1.369221        -1.584647         1.360718
