19
Iteration:  4434
 C         0.065629         0.338593        -0.244612
 C         1.513545         0.009463        -0.074712
 C         2.183276         0.026878        -1.500578
 C         3.632443        -0.027083        -1.131572
 C         3.599373         0.852348         0.211347
 O         2.242728         1.054085         0.681632
 C         4.059159        -0.582325         0.260143
 O         3.312751        -1.546840         0.864135
 C         1.859985        -1.448117         0.450832
 H        -0.451797        -0.484281        -0.597033
 H        -0.318207         0.429944         0.872053
 H        -0.095459         1.292045        -0.864406
 H         1.820036        -0.982221        -1.920540
 H         1.929858         0.862457        -2.132685
 H         4.431663         0.171041        -1.939098
 H         4.275546         1.575457         0.622533
 H         5.166159        -0.706874         0.467996
 H         1.579290        -2.160560        -0.304041
 H         1.241821        -1.760896         1.307520
