19
Iteration:   237charge 0 multiplicity 1
 C         0.080279         0.432422        -0.130460
 C         1.549503         0.111186        -0.126696
 C         2.514768         1.357708         0.267899
 C         3.726559         0.578150         0.759004
 C         3.277949        -0.729893         1.163474
 O         1.873001        -0.959082         0.834945
 C         4.065360        -0.638391        -0.057972
 O         3.379037        -1.020426        -1.308987
 C         2.035629        -0.394935        -1.518538
 H        -0.298447        -0.292818        -0.974159
 H        -0.295255         0.038705         0.839286
 H        -0.252388         1.364634        -0.390195
 H         2.501577         2.159272        -0.608334
 H         2.019150         1.906566         1.116136
 H         4.529608         1.178197         1.256380
 H         3.600252        -1.278310         2.084750
 H         5.099762        -1.017390        -0.175720
 H         2.073928         0.522789        -2.078881
 H         1.405950        -1.173873        -1.925941
