19
Iteration:   925
 C         0.070352         0.306711        -0.267250
 C         1.571018         0.131633        -0.081775
 C         2.530503         1.351677        -0.256951
 C         3.834349         0.724767         0.387738
 C         3.245389        -0.487164         1.215452
 O         1.821694        -0.379173         1.238450
 C         4.034821        -0.772486        -0.069170
 O         3.403532        -1.161405        -1.314199
 C         1.991883        -0.961760        -1.074008
 H        -0.149217         1.331099        -0.521073
 H        -0.439174        -0.348671        -1.033133
 H        -0.366387         0.226418         0.710087
 H         2.680292         1.655557        -1.336950
 H         2.096008         2.057366         0.454599
 H         4.664645         1.244812         0.848654
 H         3.743263        -0.694730         2.225625
 H         5.001312        -1.228376         0.041066
 H         1.611198        -0.908566        -2.120754
 H         1.630955        -1.855484        -0.457151
