19
Iteration:  2284charge 0 multiplicity 1
 C         0.057413         0.269500        -0.201845
 C         1.591980         0.092909        -0.146481
 C         2.475397         0.988839        -1.023514
 C         3.828118         0.745027        -0.282578
 C         3.438002         0.261087         1.126130
 O         1.973084         0.187983         1.220539
 C         4.021087        -0.666068         0.063947
 O         3.250762        -1.720851        -0.492269
 C         1.864867        -1.356880        -0.550598
 H        -0.248270         1.201857         0.367664
 H        -0.271743         0.371403        -1.282839
 H        -0.498803        -0.552316         0.213375
 H         2.607900         0.604665        -2.132100
 H         2.302045         2.061737        -0.859625
 H         4.703800         1.329095        -0.518010
 H         4.052215         0.494935         1.977502
 H         5.076857        -1.008901         0.139934
 H         1.536920        -1.697575        -1.590426
 H         1.251187        -1.936850         0.087788
