19
Iteration:  1158
 C         0.084982         0.391799        -0.345769
 C         1.579794        -0.001241        -0.116278
 C         2.546657         1.205538        -0.416056
 C         3.839659         0.714624         0.296942
 C         3.263506        -0.284505         1.292825
 O         1.861064        -0.267782         1.327638
 C         4.028191        -0.699899        -0.097288
 O         3.296082        -1.124951        -1.261181
 C         1.988994        -1.198849        -0.893109
 H         0.227646         1.448286        -0.769710
 H        -0.282324        -0.220578        -1.126857
 H        -0.565988         0.528647         0.554444
 H         2.576704         1.263752        -1.498881
 H         2.272374         1.978665         0.158005
 H         4.624705         1.404766         0.553656
 H         3.819968        -0.660764         2.218802
 H         5.015073        -1.274024        -0.170908
 H         1.340382        -1.395486        -1.696522
 H         1.887896        -1.963645        -0.086238
