19
Iteration:  4964charge 0 multiplicity 1
 C         0.058422         0.297911        -0.167492
 C         1.507115        -0.043552        -0.108098
 C         2.277672        -0.148785        -1.509338
 C         3.737295         0.173245        -1.015596
 C         3.628919         0.886736         0.254942
 O         2.213559         1.029675         0.518277
 C         4.058180        -0.605635         0.228960
 O         3.179705        -1.685578         0.559035
 C         1.838326        -1.213552         0.751756
 H        -0.275225         0.928938        -1.047161
 H        -0.566385        -0.629565        -0.132852
 H        -0.312383         0.868634         0.812387
 H         2.224280        -1.157111        -1.919501
 H         1.930124         0.543232        -2.319077
 H         4.638524         0.162035        -1.695355
 H         4.055181         1.776919         0.646254
 H         5.090198        -0.869197         0.635712
 H         1.251809        -2.093777         0.630683
 H         1.823637        -0.808802         1.804699
