19
Iteration:  4940charge 0 multiplicity 1
 C         0.116059         0.333491        -0.275376
 C         1.510454        -0.000674        -0.016650
 C         2.263849        -0.260203        -1.417918
 C         3.663715         0.155500        -1.097832
 C         3.564884         0.785045         0.291099
 O         2.186981         1.238984         0.564678
 C         4.065799        -0.587865         0.148556
 O         3.228198        -1.730365         0.596407
 C         1.897078        -1.268055         0.749161
 H         0.016000         1.373863        -0.868546
 H        -0.339149        -0.409207        -0.854089
 H        -0.534068         0.389359         0.673796
 H         2.015574        -1.324610        -1.673451
 H         1.853963         0.385915        -2.280843
 H         4.350094         0.489435        -1.834119
 H         4.283745         1.460520         0.744637
 H         5.073560        -0.666662         0.564768
 H         1.329398        -2.192440         0.381678
 H         1.749817        -1.142683         1.876802
