19
Iteration:  4015
 C         0.079721         0.218611        -0.120996
 C         1.580451        -0.063507        -0.193510
 C         2.247329         0.058004        -1.514245
 C         3.711473         0.112423        -1.064652
 C         3.631838         0.866148         0.358248
 O         2.286627         1.067795         0.639760
 C         3.980077        -0.568685         0.216007
 O         3.174453        -1.635338         0.734886
 C         1.805145        -1.405422         0.462400
 H         0.089843         0.979741         0.743780
 H        -0.361355         0.781853        -0.905011
 H        -0.623112        -0.627963         0.143817
 H         1.815106        -0.733974        -2.044282
 H         2.009934         1.031725        -1.986934
 H         4.547276         0.265622        -1.786739
 H         4.383757         1.665599         0.522257
 H         5.016008        -0.766604         0.379833
 H         1.494799        -2.106171        -0.247806
 H         1.243883        -1.636352         1.355284
