19
Iteration:   607charge 0 multiplicity 1
 C         0.075348         0.460886        -0.145036
 C         1.515885         0.083311        -0.147519
 C         2.461081         1.326791         0.008132
 C         3.741768         0.664349         0.567851
 C         3.284004        -0.549906         1.186617
 O         1.860417        -0.619694         1.008815
 C         4.083314        -0.666073        -0.079596
 O         3.488425        -1.154190        -1.267462
 C         1.956623        -0.835087        -1.330545
 H        -0.681888        -0.318789        -0.409129
 H        -0.329746         0.741733         0.924890
 H         0.137026         1.326910        -0.742446
 H         2.644146         1.864501        -0.957173
 H         1.957351         2.071332         0.715941
 H         4.477468         1.326173         1.051917
 H         3.650931        -1.107201         2.118759
 H         5.090481        -0.920516         0.013890
 H         1.900846        -0.248876        -2.226175
 H         1.574125        -1.827182        -1.229433
