19
Iteration:   682charge 0 multiplicity 1
 C         0.076590         0.234639        -0.168892
 C         1.594013         0.175905        -0.143334
 C         2.534917         1.504945         0.051506
 C         3.690501         0.675446         0.342573
 C         3.246983        -0.495441         1.205295
 O         1.860777        -0.596394         1.098091
 C         4.043715        -0.733124        -0.080780
 O         3.297858        -1.371579        -1.094976
 C         2.150496        -0.628711        -1.426594
 H        -0.539568         1.010854        -0.711311
 H        -0.294385        -0.837609        -0.482944
 H        -0.268894         0.323978         0.876872
 H         2.580248         2.140113        -0.855005
 H         2.229869         2.207257         0.943014
 H         4.654629         1.188261         0.527908
 H         3.650659        -0.754444         2.237503
 H         5.040740        -1.034651         0.013249
 H         2.374418         0.188370        -2.225190
 H         1.400319        -1.414916        -1.880033
