19
Iteration:  1727
 C         0.147628         0.456982        -0.242684
 C         1.550423         0.018752        -0.114213
 C         2.575467         1.053753        -0.776146
 C         3.826379         0.812652         0.064533
 C         3.274945        -0.018685         1.191346
 O         1.902682        -0.112959         1.263203
 C         4.042706        -0.726680         0.033276
 O         3.287495        -1.318624        -1.022059
 C         1.887228        -1.423602        -0.638349
 H         0.041071         0.897659        -1.202407
 H        -0.480221        -0.438167        -0.092655
 H         0.022648         1.234794         0.556396
 H         2.710043         0.781401        -1.788766
 H         2.097353         2.100864        -0.737612
 H         4.571541         1.639698         0.295102
 H         3.819369         0.107137         2.163563
 H         5.020636        -1.124109         0.155015
 H         1.305716        -1.796946        -1.633297
 H         1.605766        -2.220646         0.072559
