19
Iteration:  2436charge 0 multiplicity 1
 C         0.059825         0.377497        -0.133601
 C         1.571512         0.005961        -0.270461
 C         2.421067         1.080827        -0.976185
 C         3.802735         0.728730        -0.535113
 C         3.442194         0.339339         0.974324
 O         2.064520         0.162621         1.115688
 C         4.020887        -0.675259         0.182761
 O         3.213610        -1.806462        -0.092651
 C         1.908793        -1.461056        -0.658192
 H        -0.494161         0.736277        -1.080365
 H        -0.480164        -0.452952         0.487016
 H         0.144462         1.263733         0.494427
 H         2.166801         0.962568        -2.132665
 H         2.064470         2.016285        -0.745140
 H         4.546847         1.444642        -0.893972
 H         4.027193         0.798897         1.794589
 H         5.120538        -0.921751         0.338702
 H         1.895605        -1.755540        -1.737375
 H         1.252873        -2.196917        -0.016233
