19
Iteration:  4762
 C        -0.015558         0.309090        -0.199567
 C         1.454828         0.045043        -0.081792
 C         2.168731        -0.239575        -1.415345
 C         3.706946         0.011188        -1.026297
 C         3.610399         0.851605         0.213291
 O         2.215507         1.178236         0.447499
 C         4.100196        -0.545152         0.299695
 O         3.306512        -1.689679         0.634190
 C         1.914340        -1.253362         0.716537
 H        -0.596216        -0.138823         0.560299
 H        -0.075694         1.456357        -0.305921
 H        -0.412893        -0.014881        -1.103613
 H         2.109811        -1.322608        -1.808206
 H         1.820087         0.446026        -2.180722
 H         4.409337         0.192651        -1.917753
 H         4.377161         1.533767         0.453050
 H         5.204295        -0.678798         0.567504
 H         1.271396        -2.055285         0.438822
 H         1.687288        -0.993856         1.792183
