19
Iteration:  3136charge 0 multiplicity 1
 C        -0.040642         0.340764        -0.201464
 C         1.513675         0.033747        -0.158784
 C         2.404436         0.423177        -1.325555
 C         3.795503         0.536090        -0.661822
 C         3.491862         0.580546         0.798531
 O         2.072389         0.827943         0.944966
 C         4.077124        -0.718655         0.216818
 O         3.304845        -1.835819        -0.139766
 C         1.879776        -1.458240         0.152054
 H        -0.477410         0.856829        -1.118989
 H        -0.522954        -0.614776        -0.080887
 H        -0.317304         0.927247         0.706467
 H         2.374911        -0.354748        -2.075187
 H         2.174507         1.452775        -1.912500
 H         4.514183         1.084310        -1.305116
 H         4.077567         1.063491         1.514837
 H         5.139847        -0.890146         0.556547
 H         1.240425        -2.305584        -0.362476
 H         1.722081        -1.571022         1.228960
