19
Iteration:  4178
 C         0.065769         0.394511        -0.201187
 C         1.528124         0.013397        -0.134630
 C         2.194314        -0.034393        -1.546386
 C         3.708838         0.145371        -1.049231
 C         3.536492         0.804246         0.348287
 O         2.208027         0.983050         0.704468
 C         4.043479        -0.592366         0.236936
 O         3.291846        -1.675587         0.615761
 C         1.912229        -1.385783         0.558062
 H        -0.309653         0.805952         0.778966
 H         0.039321         1.192536        -0.856296
 H        -0.544774        -0.375190        -0.605285
 H         1.939509        -1.026052        -1.835375
 H         1.787902         0.753530        -2.275931
 H         4.402007         0.610681        -1.813862
 H         4.227110         1.556347         0.554427
 H         5.137244        -0.796097         0.514158
 H         1.280425        -2.156783         0.101906
 H         1.598835        -1.245593         1.657836
