19
Iteration:  1671charge 0 multiplicity 1
 C         0.106824         0.253113        -0.146969
 C         1.588776         0.067760        -0.171661
 C         2.478949         1.345254        -0.653475
 C         3.841820         0.749020        -0.087099
 C         3.367370        -0.003911         1.191476
 O         1.965847        -0.098821         1.203305
 C         3.956388        -0.725496         0.043931
 O         3.278367        -1.673420        -0.684683
 C         1.940387        -1.163359        -0.963811
 H        -0.487129        -0.498143        -0.751151
 H        -0.378583         0.367658         0.799812
 H        -0.101250         1.225707        -0.647654
 H         2.397065         1.565383        -1.711789
 H         2.121208         2.119848         0.094107
 H         4.628942         1.478201        -0.165629
 H         3.735314         0.073005         2.228461
 H         4.976082        -1.043500         0.185129
 H         2.046694        -0.907509        -2.193573
 H         1.206975        -1.952797        -0.815491
