19
Iteration:  3249charge 0 multiplicity 1
 C         0.022293         0.218043        -0.112136
 C         1.583582         0.050019        -0.202486
 C         2.341912         0.467507        -1.441185
 C         3.735093         0.480125        -0.821055
 C         3.605288         0.717984         0.700529
 O         2.223050         0.702559         0.952408
 C         4.070876        -0.655423         0.158590
 O         3.131485        -1.703676         0.409285
 C         1.780602        -1.522006        -0.064572
 H        -0.213903        -0.285434         0.775547
 H        -0.304185         1.252205        -0.098697
 H        -0.302266        -0.341063        -1.012970
 H         2.226114        -0.354716        -2.229926
 H         2.215077         1.382025        -2.022092
 H         4.606262         1.004549        -1.249056
 H         4.294135         1.407789         1.310936
 H         5.067555        -1.020019         0.324107
 H         1.509245        -1.981534        -1.015334
 H         0.974669        -1.746953         0.710341
