19
Iteration:   808
 C         0.130695         0.279270        -0.247874
 C         1.519083         0.162914        -0.114472
 C         2.530198         1.415681        -0.169782
 C         3.801934         0.704734         0.442980
 C         3.264502        -0.486209         1.212079
 O         1.856628        -0.548946         1.211849
 C         4.007771        -0.720616        -0.069091
 O         3.367679        -1.194312        -1.209152
 C         1.993239        -0.837694        -1.226014
 H        -0.399463        -0.685763         0.054659
 H        -0.302254         0.988681         0.411034
 H        -0.189217         0.577930        -1.310110
 H         2.800737         1.730051        -1.208155
 H         2.307273         2.275528         0.421123
 H         4.747979         1.200682         0.727224
 H         3.667042        -0.965845         2.196985
 H         5.040968        -1.040212        -0.039849
 H         1.801215        -0.319162        -2.160697
 H         1.381331        -1.742826        -1.214110
