19
Iteration:  2935charge 0 multiplicity 1
 C        -0.012388         0.404130        -0.195169
 C         1.510279        -0.010797        -0.197195
 C         2.463560         0.573008        -1.304704
 C         3.757859         0.633130        -0.608776
 C         3.441220         0.514078         0.907384
 O         2.027060         0.641632         1.035977
 C         4.039614        -0.706708         0.094808
 O         3.301209        -1.811380        -0.242094
 C         1.916364        -1.524833         0.102222
 H        -0.035797         1.460816        -0.371867
 H        -0.451221        -0.118416        -1.125183
 H        -0.400366         0.152086         0.791317
 H         2.637640        -0.033496        -2.220388
 H         2.122257         1.703613        -1.530876
 H         4.639347         1.083787        -1.075766
 H         3.902193         0.837642         1.799918
 H         5.124774        -0.857747         0.385138
 H         1.261352        -2.235503        -0.310686
 H         1.965191        -1.497761         1.242427
