19
Iteration:  2881
 C        -0.024810         0.265430        -0.218154
 C         1.525287         0.012880        -0.136891
 C         2.417173         0.684545        -1.256806
 C         3.838838         0.597024        -0.670082
 C         3.531788         0.567042         0.851264
 O         2.131951         0.592643         1.115049
 C         4.044928        -0.662369         0.151142
 O         3.240896        -1.808643        -0.064997
 C         1.812009        -1.504081        -0.184340
 H        -0.356688         0.246475        -1.234411
 H        -0.602958        -0.542524         0.325306
 H        -0.131807         1.247173         0.216807
 H         2.311076         0.099439        -2.140873
 H         2.056649         1.788288        -1.425481
 H         4.664210         1.281977        -0.944462
 H         4.019733         1.091601         1.659420
 H         5.076790        -0.995873         0.467841
 H         1.390758        -1.917478        -1.064703
 H         1.287946        -2.004866         0.785536
