19
Iteration:  1276charge 0 multiplicity 1
 C         0.125021         0.300435        -0.249628
 C         1.579741         0.083211        -0.177554
 C         2.442721         1.399419        -0.384776
 C         3.811381         0.856578         0.080980
 C         3.412338        -0.131347         1.190222
 O         1.955220        -0.298631         1.217803
 C         4.013954        -0.767731        -0.015122
 O         3.222299        -1.601443        -0.798291
 C         1.955331        -1.056973        -1.105986
 H        -0.394243        -0.705892        -0.257121
 H        -0.238122         0.958311         0.549134
 H        -0.134835         0.717868        -1.246363
 H         2.193608         1.694123        -1.396367
 H         2.126153         2.164807         0.478058
 H         4.698576         1.452046         0.052568
 H         3.825110        -0.071908         2.204597
 H         5.062863        -1.114261         0.017005
 H         2.100165        -0.623123        -2.199463
 H         1.250056        -1.935958        -1.105002
