19
Iteration:  3309charge 0 multiplicity 1
 C         0.083595         0.372244        -0.268011
 C         1.564063        -0.057444        -0.120439
 C         2.360812         0.337769        -1.406142
 C         3.734264         0.483703        -0.800511
 C         3.525757         0.726725         0.664227
 O         2.105310         0.784463         0.945509
 C         4.041404        -0.597039         0.153370
 O         3.250202        -1.817710         0.105473
 C         1.847981        -1.498856         0.314789
 H        -0.753813        -0.317531        -0.682861
 H        -0.391113         0.742445         0.648298
 H         0.049739         1.243369        -0.974100
 H         2.400216        -0.466661        -2.179244
 H         1.928171         1.312731        -1.755768
 H         4.543059         0.805045        -1.426534
 H         4.099995         1.155921         1.486369
 H         5.060066        -0.896857         0.450094
 H         1.328479        -2.163659        -0.313730
 H         1.575177        -1.717270         1.363991
