19
Iteration:  1523charge 0 multiplicity 1
 C        -0.005504         0.458939        -0.419822
 C         1.581226        -0.026662        -0.097053
 C         2.508021         1.127880        -0.512736
 C         3.827357         0.768827         0.087477
 C         3.367367        -0.111444         1.208311
 O         1.901414        -0.051854         1.337093
 C         4.074875        -0.692122        -0.040686
 O         3.337846        -1.371333        -1.041191
 C         1.919087        -1.392242        -0.738352
 H        -0.305624         0.581255         0.538089
 H        -0.188400         1.458777        -0.880585
 H        -0.601234        -0.274431        -0.974956
 H         2.402603         1.215666        -1.617886
 H         2.140230         2.053666        -0.159807
 H         4.745277         1.413773         0.189875
 H         3.858547        -0.202625         2.182177
 H         5.000941        -1.157809        -0.112245
 H         1.543077        -1.366510        -1.787075
 H         1.724850        -2.196757        -0.093982
