19
Iteration:  3122
 C        -0.001347         0.338383        -0.174811
 C         1.497271         0.003837        -0.173189
 C         2.441185         0.469698        -1.332363
 C         3.844685         0.488529        -0.710805
 C         3.440026         0.548766         0.842597
 O         2.024014         0.826543         0.931145
 C         4.043712        -0.647973         0.102027
 O         3.272829        -1.821715        -0.103782
 C         1.946669        -1.521310         0.226091
 H        -0.351017         0.623656        -1.274195
 H        -0.775359        -0.438676         0.257263
 H        -0.118965         1.299371         0.336693
 H         2.412697        -0.143147        -2.217507
 H         2.116241         1.577204        -1.422641
 H         4.773515         1.008843        -1.064584
 H         3.973851         1.184076         1.632045
 H         5.037881        -1.009769         0.307088
 H         1.265074        -2.246948        -0.534664
 H         1.789997        -1.722721         1.259790
