19
Iteration:  3978
 C        -0.084854         0.222640        -0.233993
 C         1.498366        -0.038962        -0.177456
 C         2.306267         0.117345        -1.467757
 C         3.775070         0.180234        -1.109523
 C         3.604165         0.775410         0.380391
 O         2.240047         1.045434         0.656003
 C         4.061955        -0.667306         0.124569
 O         3.232714        -1.726684         0.632262
 C         1.869967        -1.278335         0.708024
 H        -0.099771         1.187429         0.235278
 H        -0.603841         0.237005        -1.257168
 H        -0.606125        -0.510502         0.307381
 H         2.112450        -0.718793        -2.246538
 H         2.011857         1.099668        -1.987358
 H         4.549626         0.677245        -1.658430
 H         4.257453         1.584039         0.752398
 H         5.103677        -1.027160         0.371737
 H         1.273871        -2.113842         0.322146
 H         1.492248        -0.870311         1.740647
