19
Iteration:  1877charge 0 multiplicity 1
 C         0.015100         0.285623        -0.293593
 C         1.527235         0.030731        -0.094705
 C         2.504097         1.157296        -0.679836
 C         3.846037         0.831565        -0.066660
 C         3.467502         0.029496         1.188138
 O         2.032329        -0.049484         1.211357
 C         4.074509        -0.637608        -0.052536
 O         3.201485        -1.626723        -0.619593
 C         1.845979        -1.262873        -0.834250
 H        -0.560319        -0.002447         0.635437
 H        -0.053783         1.387619        -0.412656
 H        -0.237520        -0.162116        -1.309142
 H         2.571893         1.155166        -1.852589
 H         2.176941         2.132079        -0.327260
 H         4.692369         1.547106        -0.201716
 H         3.786561        -0.027470         2.226081
 H         5.085776        -0.927208        -0.104473
 H         1.674872        -1.080592        -1.864961
 H         1.174230        -2.068240        -0.381378
