19
Iteration:   907
 C         0.077782         0.251778        -0.252415
 C         1.575240         0.158694        -0.133825
 C         2.558696         1.341641        -0.115376
 C         3.827680         0.702549         0.343897
 C         3.280476        -0.382286         1.253201
 O         1.917210        -0.417168         1.169990
 C         3.991642        -0.740613        -0.055099
 O         3.346692        -1.249187        -1.153624
 C         1.926439        -0.915425        -1.223633
 H        -0.332687         1.052167        -0.909689
 H        -0.256290        -0.656412        -0.653924
 H        -0.474407         0.442690         0.690572
 H         2.573794         1.718459        -1.157137
 H         2.267640         2.169462         0.548766
 H         4.685915         1.411859         0.467493
 H         3.690871        -0.785283         2.154700
 H         4.982917        -1.145294         0.050869
 H         1.866291        -0.367008        -2.185801
 H         1.335868        -1.829931        -1.212729
