19
Iteration:   659charge 0 multiplicity 1
 C         0.042500         0.251048        -0.186500
 C         1.570446         0.126271        -0.133707
 C         2.431796         1.352093         0.035725
 C         3.801120         0.758428         0.462404
 C         3.350562        -0.508138         1.196829
 O         1.950401        -0.560463         1.025749
 C         4.038760        -0.752550        -0.082477
 O         3.181021        -1.421342        -1.095693
 C         2.192234        -0.522465        -1.391585
 H        -0.372277         0.435137        -1.244369
 H        -0.427347        -0.696467         0.165458
 H        -0.517121         1.079537         0.354081
 H         2.382073         2.001158        -0.825243
 H         1.925778         1.961889         0.894947
 H         4.643492         1.430448         0.653217
 H         3.677111        -0.767036         2.277590
 H         5.042595        -1.073994        -0.061489
 H         2.473828         0.362934        -2.072668
 H         1.357025        -1.151599        -1.978629
