19
Iteration:  2251
 C         0.011432         0.282680        -0.101019
 C         1.511439         0.053954        -0.211568
 C         2.399888         1.127849        -0.896517
 C         3.869524         0.722074        -0.313141
 C         3.517551         0.274467         1.086826
 O         2.032650         0.215744         1.128067
 C         3.972699        -0.698138         0.131102
 O         3.221617        -1.816172        -0.308347
 C         1.962675        -1.441298        -0.812420
 H        -0.299355         1.314562        -0.492874
 H        -0.534240        -0.436192        -0.797514
 H        -0.365826         0.263156         0.907404
 H         2.348003         1.428177        -2.096874
 H         2.252901         2.155714        -0.484449
 H         4.700249         1.303887        -0.663471
 H         4.039883         0.511339         1.972440
 H         5.017849        -0.943366         0.214966
 H         1.949989        -1.341707        -1.983121
 H         1.296972        -2.162288        -0.411819
