19
Iteration:  3526charge 0 multiplicity 1
 C        -0.019999         0.335500        -0.303824
 C         1.500520         0.034274        -0.080683
 C         2.294225         0.102598        -1.371616
 C         3.759886         0.407409        -0.847500
 C         3.558361         0.666939         0.595924
 O         2.182369         0.948162         0.821156
 C         4.112497        -0.661063         0.151983
 O         3.210422        -1.750314         0.190140
 C         1.901416        -1.396502         0.447374
 H        -0.718962        -0.557747        -0.187133
 H        -0.300235         1.124914         0.409894
 H        -0.186037         0.764860        -1.291464
 H         2.409226        -0.835028        -2.019348
 H         1.959081         0.912499        -1.948786
 H         4.449133         1.103049        -1.358557
 H         4.091127         1.496459         1.134175
 H         5.101592        -1.046116         0.370179
 H         1.240564        -2.249503         0.054564
 H         1.810109        -1.372094         1.435008
