19
Iteration:  3958charge 0 multiplicity 1
 C         0.099484         0.272613        -0.233095
 C         1.553899         0.008031        -0.082250
 C         2.257197        -0.068785        -1.453757
 C         3.686439         0.267512        -1.006469
 C         3.620799         0.839565         0.362798
 O         2.250199         0.995607         0.671764
 C         4.036065        -0.592678         0.201638
 O         3.182173        -1.665835         0.423985
 C         1.786409        -1.343681         0.701070
 H        -0.170588         1.363669        -0.117484
 H        -0.099057        -0.106193        -1.290106
 H        -0.520434        -0.309311         0.383012
 H         2.099612        -1.031889        -1.928021
 H         1.967613         0.726348        -2.209658
 H         4.466722         0.285775        -1.726490
 H         4.366586         1.585003         0.794880
 H         5.089013        -0.804782         0.433007
 H         1.209436        -2.111606         0.341203
 H         1.612194        -1.079780         1.789773
