19
Iteration:  2642charge 0 multiplicity 1
 C         0.112530         0.248305        -0.221001
 C         1.575909        -0.016968        -0.140799
 C         2.409761         0.825077        -1.113152
 C         3.767764         0.700884        -0.574633
 C         3.534905         0.531631         0.932733
 O         2.152959         0.385842         1.206856
 C         4.032192        -0.705413         0.100694
 O         3.141881        -1.803938        -0.020523
 C         1.786391        -1.409104        -0.497326
 H        -0.308335        -0.112663        -1.186563
 H        -0.316765        -0.361588         0.629748
 H        -0.094434         1.228336        -0.227364
 H         2.168067         0.531073        -2.144281
 H         1.988314         1.842117        -1.104216
 H         4.688915         1.230063        -0.849387
 H         3.977139         1.270410         1.600345
 H         5.031151        -1.007895         0.099304
 H         1.803798        -1.522293        -1.689220
 H         1.131473        -2.144736        -0.055360
