19
Iteration:   518charge 0 multiplicity 1
 C         0.179864         0.375503        -0.183319
 C         1.621680         0.122490        -0.116140
 C         2.452547         1.347182         0.159288
 C         3.742981         0.699994         0.490676
 C         3.217446        -0.602739         1.175415
 O         1.829976        -0.690927         1.026830
 C         4.049528        -0.736519        -0.087782
 O         3.414248        -1.062437        -1.311579
 C         2.016361        -0.748637        -1.319532
 H        -0.223692         0.991357         0.671894
 H         0.057144         1.109101        -1.015941
 H        -0.476727        -0.516301        -0.445185
 H         2.473951         1.934924        -0.751222
 H         2.013243         2.065883         0.993977
 H         4.448140         1.281999         1.009097
 H         3.665713        -0.900127         2.109980
 H         5.043755        -1.237782         0.008639
 H         1.710710        -0.145992        -2.199256
 H         1.434176        -1.679010        -1.406092
