19
Iteration:   846charge 0 multiplicity 1
 C         0.031246         0.439920        -0.088569
 C         1.549055         0.108518        -0.234237
 C         2.409156         1.421643        -0.114686
 C         3.728320         0.782700         0.319473
 C         3.308267        -0.361118         1.229337
 O         1.894524        -0.704627         1.034580
 C         4.135370        -0.723504        -0.045178
 O         3.312802        -1.404871        -0.954243
 C         2.111579        -0.832258        -1.376552
 H        -0.647808        -0.072918        -0.732701
 H        -0.102875         0.414468         1.071945
 H         0.005286         1.521160        -0.168611
 H         2.403185         2.056686        -0.992418
 H         1.976442         2.069089         0.704971
 H         4.518718         1.507206         0.470762
 H         3.627992        -0.522578         2.199651
 H         5.180415        -1.165052        -0.067839
 H         2.398245        -0.211476        -2.291112
 H         1.460834        -1.551247        -1.901706
