19
Iteration:  2563charge 0 multiplicity 1
 C         0.107488         0.317966        -0.274484
 C         1.535338         0.040971        -0.111019
 C         2.440520         0.717200        -1.200936
 C         3.788364         0.707505        -0.494495
 C         3.470742         0.442625         1.101684
 O         2.070719         0.360718         1.245022
 C         4.018298        -0.674497         0.154209
 O         3.233833        -1.702865        -0.455364
 C         1.819477        -1.436531        -0.277307
 H        -0.258114        -0.025429         0.646980
 H         0.038914         1.392511        -0.279641
 H        -0.298309        -0.135207        -1.184679
 H         2.468797         0.178972        -2.092134
 H         2.037824         1.798370        -1.298610
 H         4.566059         1.367224        -0.867816
 H         3.945680         0.777022         2.040516
 H         5.095566        -1.001413         0.362919
 H         1.328914        -1.802725        -1.298749
 H         1.457218        -2.096931         0.441636
