19
Iteration:  2019charge 0 multiplicity 1
 C        -0.041362         0.269506        -0.094354
 C         1.493683         0.118027        -0.216987
 C         2.462898         1.246581        -0.813467
 C         3.824986         0.730075        -0.312887
 C         3.462561         0.062248         1.152955
 O         1.988507         0.033496         1.224033
 C         4.075342        -0.696887         0.074902
 O         3.236717        -1.770419        -0.398004
 C         2.005669        -1.225035        -0.967261
 H        -0.465366         0.988886        -0.786241
 H        -0.567886        -0.658731        -0.440137
 H        -0.078111         0.504026         1.040040
 H         2.288727         1.454125        -1.963713
 H         2.293848         2.095135        -0.238712
 H         4.637145         1.426949        -0.308680
 H         3.856496         0.311274         2.100323
 H         5.124640        -1.099763         0.270206
 H         2.199051        -0.945251        -2.075920
 H         1.119308        -1.996498        -0.813339
