19
Iteration:  4722
 C         0.103421         0.199691        -0.155279
 C         1.599528        -0.080859        -0.164225
 C         2.303383        -0.224472        -1.543226
 C         3.736586         0.126428        -1.169783
 C         3.593330         0.868887         0.174408
 O         2.212676         1.084859         0.537735
 C         4.029665        -0.574332         0.315558
 O         3.119299        -1.632850         0.605431
 C         1.830226        -1.091520         0.839557
 H        -0.565015        -0.423174         0.677243
 H         0.041253         1.190945         0.281842
 H        -0.428896        -0.010937        -1.097129
 H         2.193775        -1.228765        -1.855229
 H         1.792355         0.463017        -2.262985
 H         4.634304         0.287374        -1.794951
 H         4.092376         1.721831         0.666706
 H         5.051436        -0.921502         0.540756
 H         1.092956        -2.032462         1.055629
 H         1.853114        -0.577669         1.804491
