19
Iteration:  1209charge 0 multiplicity 1
 C         0.084329         0.357495        -0.154773
 C         1.620841         0.118088        -0.155996
 C         2.502270         1.283902        -0.470864
 C         3.776595         0.791910         0.199649
 C         3.330904        -0.212172         1.257288
 O         1.883108        -0.366219         1.172290
 C         4.048623        -0.713718         0.034480
 O         3.337148        -1.455092        -0.953064
 C         1.924181        -1.052678        -1.121791
 H        -0.057210         0.841688         0.832584
 H        -0.315269         1.090549        -0.923327
 H        -0.373699        -0.645802        -0.196026
 H         2.628465         1.380450        -1.567713
 H         1.976917         2.304629         0.011363
 H         4.685760         1.386565         0.138117
 H         3.741473        -0.175716         2.308606
 H         5.134730        -1.103778        -0.029788
 H         1.811080        -0.526854        -2.128041
 H         1.207191        -1.946068        -1.146827
