19
Iteration:  3875
 C        -0.006847         0.172212        -0.182443
 C         1.557572         0.011948        -0.092371
 C         2.304087         0.226713        -1.481648
 C         3.726179         0.163221        -1.050197
 C         3.666623         0.803999         0.354243
 O         2.290320         0.996970         0.673028
 C         3.991991        -0.614732         0.193811
 O         3.168672        -1.643952         0.686542
 C         1.831468        -1.398449         0.454398
 H        -0.451573        -0.073514        -1.182415
 H        -0.484314        -0.471961         0.486822
 H        -0.281339         1.223571         0.143999
 H         2.111189        -0.749768        -2.050478
 H         2.047384         1.154774        -2.003170
 H         4.532250         0.348351        -1.739643
 H         4.382173         1.649983         0.645530
 H         4.939796        -1.051037         0.178486
 H         1.102294        -2.177009        -0.153370
 H         1.333894        -1.494667         1.461667
