19
Iteration:  4902charge 0 multiplicity 1
 C         0.074354         0.318812        -0.178898
 C         1.524754        -0.066921        -0.185093
 C         2.219248        -0.189338        -1.546885
 C         3.716491         0.077976        -1.100470
 C         3.580550         0.871624         0.210968
 O         2.266925         1.000745         0.643914
 C         4.107959        -0.587102         0.214548
 O         3.199337        -1.534527         0.700524
 C         1.801411        -1.265879         0.737132
 H         0.001776         1.275558         0.159739
 H        -0.395132         0.078135        -1.201099
 H        -0.547411        -0.194595         0.552596
 H         2.169051        -1.082463        -2.199228
 H         1.960470         0.658757        -2.180866
 H         4.474401         0.310678        -1.917837
 H         4.211414         1.758277         0.400239
 H         5.130005        -0.783553         0.642385
 H         1.147677        -2.209576         0.611857
 H         1.515877        -0.797741         1.689977
