19
Iteration:  3489
 C         0.061361         0.220331        -0.129733
 C         1.609421        -0.036657        -0.152591
 C         2.349005         0.313776        -1.494434
 C         3.774209         0.348918        -0.906145
 C         3.563336         0.808858         0.584303
 O         2.212413         0.887963         0.808246
 C         3.984309        -0.651691         0.237361
 O         3.141953        -1.742400         0.311957
 C         1.824409        -1.447141         0.306894
 H        -0.394077        -0.360066         0.653067
 H        -0.201088         1.340073         0.068767
 H        -0.375713        -0.115976        -1.105383
 H         2.139384        -0.456674        -2.245472
 H         2.105100         1.321676        -1.968477
 H         4.702847         0.649222        -1.360687
 H         4.183362         1.511120         1.138948
 H         5.022357        -0.923866         0.497513
 H         1.273661        -2.193139        -0.315110
 H         1.304943        -1.402330         1.246439
