19
Iteration:   940
 C         0.027756         0.481886        -0.221438
 C         1.532381         0.098513        -0.175596
 C         2.590167         1.239580        -0.270089
 C         3.767327         0.650673         0.413231
 C         3.238995        -0.481578         1.234493
 O         1.835965        -0.403505         1.278394
 C         4.055220        -0.669322        -0.101246
 O         3.447353        -1.024998        -1.299196
 C         1.981316        -1.171122        -1.054457
 H        -0.135240         1.554897        -0.348478
 H        -0.343567         0.033623        -1.055096
 H        -0.420602        -0.045277         0.609627
 H         2.731705         1.427467        -1.373105
 H         2.366334         2.219942         0.140231
 H         4.534713         1.378661         0.756748
 H         3.594701        -0.826468         2.146147
 H         5.089601        -1.027217        -0.048539
 H         1.401008        -1.156856        -1.976417
 H         1.746833        -2.133529        -0.565104
