19
Iteration:  4508
 C        -0.006449         0.345258        -0.208025
 C         1.487289         0.016210        -0.143163
 C         2.238343        -0.135609        -1.390497
 C         3.671449         0.059996        -1.033050
 C         3.614732         0.893492         0.244433
 O         2.198073         1.152762         0.498053
 C         4.149098        -0.615286         0.268988
 O         3.275893        -1.653240         0.615245
 C         1.881650        -1.418979         0.702841
 H        -0.271708         0.759682        -1.147018
 H        -0.597813        -0.572615        -0.268608
 H        -0.250647         1.163846         0.585928
 H         1.973132        -1.113569        -1.811057
 H         2.015078         0.687458        -2.023596
 H         4.470728         0.455614        -1.757305
 H         4.206990         1.741186         0.470213
 H         5.164815        -0.849546         0.714837
 H         1.162075        -2.189070         0.307443
 H         1.538032        -1.430246         1.697537
