19
Iteration:   150
 C         0.088156         0.514640        -0.236247
 C         1.567657         0.146129        -0.078511
 C         2.550928         1.217215         0.298790
 C         3.712569         0.487879         0.929628
 C         3.210948        -0.941447         1.017149
 O         1.784696        -0.964557         0.950653
 C         4.061403        -0.591251        -0.184170
 O         3.450902        -0.567232        -1.456682
 C         2.053993        -0.585590        -1.337241
 H        -0.290403         1.603683         0.072262
 H        -0.073036         0.496494        -1.328804
 H        -0.556794        -0.216085         0.180092
 H         2.826804         1.820496        -0.683602
 H         2.112118         1.978597         1.001590
 H         4.414646         0.774490         1.696634
 H         3.707045        -1.494218         1.841574
 H         5.047644        -0.926647        -0.289860
 H         1.681231        -0.435623        -2.361386
 H         1.828181        -1.715486        -1.105273
