19
Iteration:  3028
 C         0.146797         0.350109        -0.070675
 C         1.561080        -0.043464        -0.207522
 C         2.391716         0.778899        -1.353530
 C         3.791269         0.494335        -0.776263
 C         3.475307         0.650908         0.743532
 O         2.083996         0.563934         0.960413
 C         3.966394        -0.641330         0.212065
 O         3.231722        -1.793472         0.270901
 C         1.855061        -1.623413        -0.208502
 H        -0.205345        -0.427474         0.634487
 H         0.052258         1.268275         0.393044
 H        -0.453579         0.128811        -1.026504
 H         2.239376         0.309291        -2.377100
 H         1.993236         1.788951        -1.129394
 H         4.661491         0.864336        -1.418511
 H         3.906856         1.441218         1.380812
 H         5.057582        -0.901120         0.265672
 H         1.793165        -1.977776        -1.207082
 H         1.072130        -2.051797         0.600108
