19
Iteration:  1574charge 0 multiplicity 1
 C         0.021297         0.359870        -0.142879
 C         1.546007         0.105677        -0.239657
 C         2.592567         1.151858        -0.690640
 C         3.848478         0.795583         0.092080
 C         3.303211        -0.132572         1.245834
 O         1.892236        -0.108683         1.234774
 C         4.041169        -0.665333         0.060547
 O         3.372010        -1.469199        -0.978798
 C         1.896978        -1.246599        -0.840010
 H        -0.346424         0.188125         0.935713
 H        -0.252271         1.398530        -0.396579
 H        -0.502374        -0.272290        -0.903557
 H         2.665582         1.136701        -1.748485
 H         2.169817         2.178515        -0.403987
 H         4.655306         1.506348         0.113948
 H         3.742685        -0.296926         2.201632
 H         5.005768        -1.213018         0.192248
 H         1.557837        -1.389876        -1.908329
 H         1.498486        -2.059513        -0.143047
