19
Iteration:  3878charge 0 multiplicity 1
 C         0.014487         0.189308        -0.186306
 C         1.559409         0.005952        -0.120849
 C         2.310214         0.226875        -1.515939
 C         3.737372         0.150271        -1.029517
 C         3.636212         0.828770         0.364237
 O         2.290843         0.993052         0.685341
 C         3.986443        -0.623969         0.169715
 O         3.174119        -1.649048         0.671080
 C         1.808310        -1.413659         0.498920
 H        -0.388865         0.019977        -1.155947
 H        -0.513388        -0.519390         0.535060
 H        -0.247228         1.202257         0.267724
 H         2.109821        -0.775218        -2.154108
 H         2.006780         1.175672        -2.027427
 H         4.576414         0.394835        -1.713905
 H         4.296700         1.624008         0.566346
 H         5.044170        -0.964188         0.253659
 H         1.157836        -2.122441        -0.086330
 H         1.316724        -1.517449         1.537385
