19
Iteration:   787
 C         0.005231         0.316966        -0.274434
 C         1.575744         0.148539        -0.079291
 C         2.600600         1.250368        -0.147623
 C         3.831332         0.692653         0.500600
 C         3.276813        -0.548013         1.243544
 O         1.829878        -0.446623         1.182009
 C         4.060873        -0.748304        -0.075609
 O         3.391425        -0.983989        -1.356966
 C         1.971519        -0.956673        -1.155974
 H        -0.676128        -0.210970         0.479071
 H        -0.350506         1.308328        -0.173619
 H        -0.226471        -0.044514        -1.356353
 H         2.780968         1.576981        -1.174344
 H         2.239173         2.049978         0.461931
 H         4.568959         1.449771         0.827972
 H         3.584355        -0.888753         2.310101
 H         4.946836        -1.358479        -0.027771
 H         1.567105        -0.677368        -2.084841
 H         1.579020        -1.828543        -0.749340
