19
Iteration:  1500charge 0 multiplicity 1
 C         0.094438         0.379116        -0.233870
 C         1.615144         0.108513        -0.152717
 C         2.445898         1.285015        -0.584512
 C         3.771382         0.803503         0.057071
 C         3.319506        -0.110440         1.185917
 O         1.957836        -0.203609         1.210273
 C         4.023680        -0.679587         0.045748
 O         3.370161        -1.578314        -0.920117
 C         1.877488        -1.206510        -0.857383
 H        -0.287953         0.684779         0.658326
 H        -0.115714         1.143907        -0.987399
 H        -0.333609        -0.542712        -0.657252
 H         2.468424         1.503648        -1.627283
 H         2.162709         2.220326        -0.120240
 H         4.689198         1.375075         0.134151
 H         3.707654        -0.163483         2.168052
 H         5.002766        -1.116042         0.166320
 H         1.567066        -1.368726        -1.936319
 H         1.539411        -1.837153        -0.103163
