19
Iteration:  2926
 C         0.048447         0.373215        -0.205698
 C         1.547400         0.004622        -0.172257
 C         2.466799         0.516084        -1.341221
 C         3.806923         0.674237        -0.576805
 C         3.412538         0.468579         0.846870
 O         2.016660         0.637234         1.099264
 C         4.025572        -0.668658         0.138687
 O         3.266528        -1.813852        -0.294173
 C         1.931274        -1.461782         0.107777
 H        -0.172713         1.368983        -0.624307
 H        -0.594220        -0.379566        -0.799972
 H        -0.258215         0.365637         0.791370
 H         2.478784        -0.164965        -2.130074
 H         2.140369         1.604736        -1.707130
 H         4.531776         1.334080        -1.009806
 H         3.975976         0.929942         1.623687
 H         5.010515        -1.016781         0.473499
 H         1.263652        -2.032875        -0.484139
 H         1.645951        -1.694548         1.287486
