19
Iteration:  1621
 C         0.143733         0.306846        -0.241737
 C         1.570383         0.082871        -0.075730
 C         2.429090         1.315023        -0.578475
 C         3.753473         0.784678        -0.122642
 C         3.410929        -0.013309         1.153010
 O         2.004292        -0.276135         1.207253
 C         3.988406        -0.675017         0.023810
 O         3.163856        -1.689841        -0.556244
 C         2.045579        -1.046398        -1.060292
 H        -0.343646        -0.380621         0.382746
 H        -0.148734         1.312086         0.223094
 H        -0.316785         0.269699        -1.242376
 H         2.380652         1.300927        -1.675245
 H         2.137316         2.263581        -0.153291
 H         4.645377         1.500808        -0.334796
 H         3.807188         0.029492         2.213077
 H         5.000548        -0.969337         0.080067
 H         2.178186        -0.690979        -2.212806
 H         1.284790        -1.900834        -0.995910
