19
Iteration:  2733
 C         0.029121         0.282029        -0.288453
 C         1.535871         0.069661        -0.051987
 C         2.484955         0.603981        -1.199261
 C         3.775206         0.711690        -0.484589
 C         3.450330         0.462790         0.931172
 O         2.046909         0.545063         1.208487
 C         4.057103        -0.746167         0.086514
 O         3.261038        -1.719736        -0.399125
 C         1.840608        -1.406073        -0.108824
 H        -0.279677         1.172500         0.279193
 H         0.085579         0.296675        -1.351890
 H        -0.550028        -0.523727         0.150612
 H         2.679449        -0.154710        -2.145346
 H         2.143199         1.459874        -1.655419
 H         4.280398         1.529220        -0.980122
 H         3.997487         0.772859         1.799432
 H         5.075880        -1.258153         0.140228
 H         1.344381        -2.036057        -0.888668
 H         1.635790        -1.828056         0.965493
