19
Iteration:  3496
 C         0.047934         0.167885        -0.137701
 C         1.583372         0.012517        -0.099680
 C         2.373507         0.244313        -1.500911
 C         3.821871         0.397697        -0.950753
 C         3.603948         0.781890         0.588928
 O         2.211146         0.894084         0.856882
 C         3.955263        -0.603885         0.242594
 O         3.114765        -1.757341         0.273794
 C         1.790340        -1.401312         0.303689
 H        -0.573338        -0.504818         0.501951
 H        -0.137973         1.131407         0.110571
 H        -0.178942         0.093737        -1.237182
 H         2.442337        -0.595527        -2.180666
 H         2.043798         1.225570        -1.982994
 H         4.784888         0.543147        -1.485594
 H         4.073924         1.578259         1.110468
 H         5.006660        -0.957706         0.311227
 H         1.176131        -2.064216        -0.248178
 H         1.453620        -1.448779         1.537653
