19
Iteration:  4761
 C        -0.020209         0.306283        -0.197596
 C         1.456541         0.051412        -0.081764
 C         2.172887        -0.234106        -1.413916
 C         3.713220         0.017134        -1.033072
 C         3.613520         0.846530         0.217247
 O         2.211722         1.179397         0.436138
 C         4.105367        -0.552783         0.306159
 O         3.302021        -1.688379         0.631235
 C         1.910902        -1.263870         0.724504
 H        -0.548502        -0.135531         0.545388
 H        -0.103530         1.445289        -0.292139
 H        -0.437137         0.013301        -1.130201
 H         2.104036        -1.336417        -1.791130
 H         1.770175         0.426275        -2.190632
 H         4.416164         0.203229        -1.903823
 H         4.349923         1.552757         0.499424
 H         5.208599        -0.679680         0.534153
 H         1.283277        -2.008231         0.464701
 H         1.735830        -0.997348         1.807946
