19
Iteration:  1962
 C         0.041540         0.419544        -0.261033
 C         1.510375         0.045389        -0.137306
 C         2.509855         1.027103        -0.787673
 C         3.809041         0.812652        -0.066962
 C         3.426328         0.060268         1.165946
 O         1.989140        -0.112036         1.277940
 C         4.051368        -0.653737        -0.014520
 O         3.277204        -1.517589        -0.751339
 C         1.882280        -1.301135        -0.664636
 H        -0.414146        -0.140775        -1.128714
 H        -0.521477         0.197086         0.624579
 H        -0.168314         1.437987        -0.471551
 H         2.627302         0.810700        -1.919352
 H         2.197925         2.038194        -0.804518
 H         4.677213         1.500137        -0.117652
 H         3.916867         0.310721         2.104917
 H         5.035458        -1.015294         0.045340
 H         1.641352        -1.638176        -1.727715
 H         1.394378        -1.998372         0.034926
