19
Iteration:  4176
 C         0.061841         0.404404        -0.197782
 C         1.529614         0.020623        -0.135527
 C         2.205842        -0.038846        -1.547067
 C         3.702174         0.139871        -1.038999
 C         3.527252         0.796389         0.348122
 O         2.196472         0.989650         0.683702
 C         4.057693        -0.586363         0.244883
 O         3.299733        -1.681707         0.605059
 C         1.914562        -1.398630         0.574735
 H        -0.352268         0.765160         0.848457
 H         0.056355         1.309641        -0.859372
 H        -0.546072        -0.347860        -0.604375
 H         1.942505        -1.024048        -1.869087
 H         1.836664         0.772426        -2.278887
 H         4.336206         0.614098        -1.838007
 H         4.186766         1.581324         0.633052
 H         5.102636        -0.837832         0.503930
 H         1.229570        -2.188982         0.160193
 H         1.707800        -1.242460         1.589036
