19
Iteration:   503charge 0 multiplicity 1
 C         0.067732         0.465917        -0.212229
 C         1.540918         0.094234        -0.135637
 C         2.420114         1.357262         0.088310
 C         3.755078         0.680998         0.527743
 C         3.305110        -0.597900         1.214466
 O         1.895969        -0.791551         1.027807
 C         4.030289        -0.672690        -0.093991
 O         3.396471        -1.184386        -1.224738
 C         2.065813        -0.599655        -1.391818
 H        -0.067719         1.137648         0.607106
 H        -0.203209         0.761832        -1.197984
 H        -0.491158        -0.431298         0.208889
 H         2.467119         2.164027        -0.690960
 H         2.036075         1.750412         1.057098
 H         4.645244         1.275502         0.877448
 H         3.587214        -0.970043         2.201235
 H         5.104404        -0.909729        -0.099055
 H         2.079368        -0.114450        -2.343006
 H         1.359952        -1.454832        -1.587926
