19
Iteration:  2986
 C         0.016211         0.253493        -0.232193
 C         1.570969         0.081333        -0.121841
 C         2.375585         0.599397        -1.272421
 C         3.773765         0.589474        -0.751006
 C         3.585293         0.621548         0.868652
 O         2.176575         0.573821         1.130377
 C         4.033909        -0.640998         0.101905
 O         3.164759        -1.770035         0.077377
 C         1.819148        -1.493260        -0.133287
 H        -0.389055         0.614998         0.710841
 H        -0.315811         0.824362        -1.098488
 H        -0.396314        -0.821651        -0.540723
 H         2.213844        -0.212474        -2.122034
 H         2.141527         1.442027        -1.792558
 H         4.754751         0.968946        -1.168398
 H         4.109247         1.319566         1.532763
 H         5.114997        -0.939811         0.109688
 H         1.449069        -1.781824        -1.267128
 H         1.180170        -2.035926         0.687252
