19
Iteration:  2624
 C         0.098677         0.274575        -0.166334
 C         1.527971         0.078513        -0.154611
 C         2.377698         0.961208        -1.119895
 C         3.790051         0.606125        -0.604225
 C         3.493039         0.460557         0.906576
 O         2.094488         0.315287         1.123168
 C         4.030468        -0.671848         0.121846
 O         3.190077        -1.805296        -0.000729
 C         1.927877        -1.467557        -0.481325
 H        -0.505412        -0.487059        -0.744637
 H        -0.378298         0.395984         0.809316
 H        -0.266521         1.311433        -0.616949
 H         2.197272         0.750664        -2.279946
 H         2.169591         2.015202        -0.926738
 H         4.577217         1.234162        -1.061743
 H         4.066947         0.830888         1.780529
 H         5.071097        -0.977387         0.295272
 H         1.831914        -1.691546        -1.494849
 H         1.154872        -2.088301         0.142058
