19
Iteration:  3192
 C         0.005358         0.380947        -0.230848
 C         1.561586        -0.053697        -0.145880
 C         2.304361         0.523350        -1.425026
 C         3.723263         0.558828        -0.775997
 C         3.549284         0.615883         0.690272
 O         2.153913         0.661031         0.956768
 C         4.068034        -0.668628         0.206638
 O         3.259304        -1.838129         0.255479
 C         1.885321        -1.470704         0.075859
 H        -0.102134         1.377788         0.161806
 H        -0.347662         0.431303        -1.215970
 H        -0.768566        -0.317104         0.292314
 H         2.204200        -0.164314        -2.294336
 H         1.997688         1.611995        -1.650294
 H         4.570486         1.019057        -1.220745
 H         4.081227         1.407779         1.228687
 H         5.131418        -0.915809         0.283185
 H         1.566006        -2.087696        -0.813602
 H         1.314277        -1.798633         0.980915
