19
Iteration:   212
 C         0.056065         0.349447        -0.105698
 C         1.542891         0.159484        -0.145609
 C         2.494675         1.361655         0.239806
 C         3.766265         0.518386         0.770183
 C         3.208054        -0.907979         1.099080
 O         1.781033        -0.847211         0.886943
 C         4.060309        -0.679983        -0.088963
 O         3.503114        -0.808333        -1.376727
 C         2.080557        -0.447841        -1.409500
 H        -0.420120        -0.582262         0.108001
 H        -0.077990         1.073745         0.669903
 H        -0.342776         0.694370        -1.092584
 H         2.707632         1.897937        -0.659584
 H         2.022108         2.063622         0.912200
 H         4.562534         1.014855         1.284263
 H         3.417121        -1.477252         2.012648
 H         5.061882        -0.948627        -0.178418
 H         1.874913         0.217880        -2.221986
 H         1.560467        -1.362416        -1.472090
