19
Iteration:  3579
 C         0.024932         0.288782        -0.138249
 C         1.538484        -0.003073        -0.161766
 C         2.291147         0.154180        -1.471141
 C         3.746534         0.365184        -0.911892
 C         3.599240         0.743557         0.537805
 O         2.219441         0.899116         0.761783
 C         4.114386        -0.594319         0.194619
 O         3.232637        -1.730245         0.374735
 C         1.738009        -1.403898         0.388999
 H        -0.509026        -0.146024        -1.038811
 H        -0.533110         0.031429         0.829992
 H        -0.094497         1.365260        -0.195997
 H         2.491698        -0.687667        -2.200742
 H         1.959256         0.953932        -2.059201
 H         4.513891         0.732860        -1.610409
 H         4.084895         1.449049         1.265037
 H         5.137858        -0.875943         0.393208
 H         1.265623        -2.165089        -0.406594
 H         1.243446        -1.586496         1.460900
