19
Iteration:  3897
 C         0.103191         0.340745        -0.134645
 C         1.545745        -0.067304        -0.180102
 C         2.296578         0.052590        -1.540971
 C         3.727874         0.273101        -1.074508
 C         3.571571         0.786181         0.322860
 O         2.147253         0.941875         0.690921
 C         4.086563        -0.610291         0.258320
 O         3.226031        -1.731187         0.596711
 C         1.820897        -1.321557         0.547148
 H        -0.339599         0.649519        -1.103593
 H        -0.499882        -0.461455         0.151310
 H         0.016627         1.230353         0.568716
 H         2.068640        -0.735698        -2.321336
 H         2.078170         1.063906        -1.863756
 H         4.478490         0.600894        -1.792602
 H         4.174721         1.528225         0.916127
 H         5.050960        -0.922102         0.513335
 H         1.178108        -2.309646         0.272709
 H         1.416679        -1.081214         1.560871
