19
Iteration:  2886charge 0 multiplicity 1
 C        -0.048784         0.242074        -0.219576
 C         1.507963         0.009594        -0.143915
 C         2.443355         0.627041        -1.239808
 C         3.845354         0.633764        -0.663090
 C         3.536835         0.603353         0.893915
 O         2.154254         0.600335         1.107788
 C         4.042541        -0.663830         0.165791
 O         3.209992        -1.788528        -0.116144
 C         1.800401        -1.505755        -0.134732
 H        -0.370151         0.373036        -1.306790
 H        -0.595734        -0.570742         0.197015
 H        -0.088139         1.230354         0.318315
 H         2.345282         0.030135        -2.214390
 H         2.071321         1.582738        -1.370414
 H         4.723045         1.119989        -1.078479
 H         4.177747         1.081139         1.664484
 H         5.028584        -0.913874         0.441797
 H         1.389479        -1.882701        -1.151230
 H         1.379918        -2.027679         0.612659
