19
Iteration:  2322
 C         0.116103         0.449749        -0.283989
 C         1.549687        -0.029304        -0.110316
 C         2.520235         0.758783        -1.008648
 C         3.764691         0.776989        -0.238331
 C         3.410153         0.281218         1.127007
 O         1.937631         0.235898         1.267415
 C         4.080296        -0.685583         0.018036
 O         3.279425        -1.566215        -0.721929
 C         1.869226        -1.488584        -0.368559
 H        -0.331850         0.683834         0.652066
 H         0.161745         1.329733        -0.876562
 H        -0.572762        -0.288193        -0.838070
 H         2.474753         0.352904        -1.941759
 H         2.039672         1.758516        -1.078574
 H         4.547237         1.545193        -0.349415
 H         3.861053         0.536724         2.082390
 H         5.007655        -1.104795         0.284612
 H         1.297601        -1.972859        -1.117337
 H         1.735262        -1.957170         0.698271
