19
Iteration:  4517
 C        -0.043399         0.378101        -0.273592
 C         1.509468        -0.019734        -0.023180
 C         2.255634        -0.211010        -1.324815
 C         3.750504         0.092891        -1.040298
 C         3.599965         0.898642         0.275831
 O         2.227479         1.168324         0.496923
 C         4.075966        -0.573499         0.247517
 O         3.241550        -1.673441         0.540676
 C         1.879137        -1.389243         0.703473
 H        -0.092762         1.022366        -1.190152
 H        -0.581911        -0.492508        -0.414362
 H        -0.418959         0.751352         0.707864
 H         2.086320        -1.197385        -1.738566
 H         1.802910         0.474968        -2.114728
 H         4.305002         0.269164        -2.020158
 H         4.231445         1.705273         0.460162
 H         5.068015        -0.726869         0.728087
 H         1.380506        -2.258692         0.259088
 H         1.813757        -1.191494         1.822207
