19
Iteration:  1347
 C         0.063243         0.468233        -0.115194
 C         1.537386        -0.021723        -0.205032
 C         2.572746         1.145820        -0.626072
 C         3.834963         0.801552         0.235491
 C         3.263076        -0.205489         1.252788
 O         1.855947        -0.103200         1.202162
 C         4.043882        -0.724815         0.036695
 O         3.344300        -1.227525        -1.130063
 C         1.983418        -1.424171        -0.898585
 H        -0.611447         0.533717        -0.987609
 H        -0.564682        -0.295900         0.586113
 H        -0.050793         1.563380         0.313825
 H         3.021482         1.005079        -1.727740
 H         2.092662         2.120475        -0.312521
 H         4.654298         1.547632         0.298880
 H         3.665262        -0.239402         2.314686
 H         5.147205        -1.115367         0.156038
 H         1.494484        -1.666786        -1.885703
 H         1.777863        -2.278146        -0.219067
