19
Iteration:   367
 C         0.091379         0.569540        -0.126581
 C         1.514381         0.065163        -0.140380
 C         2.506218         1.170889         0.044698
 C         3.758675         0.587304         0.686964
 C         3.206780        -0.780679         1.133161
 O         1.766295        -0.723382         1.057859
 C         4.090989        -0.622741        -0.112146
 O         3.475819        -0.684062        -1.375655
 C         2.092468        -0.890936        -1.344310
 H        -0.643150        -0.297090         0.068022
 H        -0.097434         1.332092         0.696464
 H        -0.230298         0.951759        -1.055143
 H         2.755728         1.694986        -0.884339
 H         2.050503         1.800642         0.738824
 H         4.413941         1.206838         1.319781
 H         3.552348        -1.318705         1.987772
 H         5.115595        -1.156135        -0.107932
 H         1.765958        -0.630240        -2.403289
 H         1.729279        -1.896313        -1.131392
