19
Iteration:   992charge 0 multiplicity 1
 C         0.035398         0.457362        -0.144865
 C         1.562298         0.056375        -0.149921
 C         2.511726         1.268822        -0.375289
 C         3.790122         0.787396         0.386620
 C         3.314465        -0.379393         1.282059
 O         1.867241        -0.489626         1.148970
 C         4.028736        -0.679105        -0.046277
 O         3.401294        -1.276606        -1.138641
 C         1.995734        -0.996061        -1.157353
 H        -0.133119         0.787543         0.897280
 H        -0.077997         1.347877        -0.770815
 H        -0.635517        -0.348966        -0.382546
 H         2.544479         1.301362        -1.506013
 H         2.097814         2.148079         0.098486
 H         4.696041         1.408962         0.557037
 H         3.612857        -0.594637         2.277155
 H         5.037674        -0.992166        -0.058549
 H         1.619318        -0.685239        -2.153292
 H         1.498563        -1.957076        -0.810332
