19
Iteration:   375charge 0 multiplicity 1
 C         0.067000         0.533208        -0.172463
 C         1.536854        -0.017418        -0.178695
 C         2.553112         1.213030         0.064861
 C         3.747009         0.579125         0.718491
 C         3.210353        -0.693864         1.148643
 O         1.796443        -0.751195         1.054459
 C         4.077923        -0.662964        -0.149912
 O         3.472378        -0.684236        -1.343237
 C         1.986055        -0.853173        -1.325713
 H        -0.656776        -0.233025        -0.238489
 H        -0.034630         1.064224         0.729588
 H        -0.007475         1.317483        -0.995007
 H         2.719866         1.728834        -0.827007
 H         2.166887         1.931178         0.789417
 H         4.479537         1.260705         1.253379
 H         3.701190        -1.302260         1.945775
 H         5.082572        -1.123316        -0.075015
 H         1.747842        -0.619058        -2.387470
 H         1.773600        -1.885578        -0.995735
