19
Iteration:  3695
 C        -0.005982         0.342253        -0.163184
 C         1.519043        -0.035071        -0.057623
 C         2.385672         0.006768        -1.444460
 C         3.801289         0.312042        -0.982491
 C         3.595829         0.845652         0.491470
 O         2.206474         0.998121         0.778697
 C         4.061186        -0.564078         0.190476
 O         3.183275        -1.761490         0.346537
 C         1.773567        -1.452522         0.434961
 H        -0.097357         1.329316         0.190171
 H        -0.335255         0.310733        -1.251114
 H        -0.675982        -0.310023         0.350674
 H         2.279263        -0.782573        -2.115694
 H         1.812925         0.884745        -1.884725
 H         4.534007         0.773285        -1.660866
 H         4.269875         1.648489         0.970380
 H         5.071190        -0.821493         0.422962
 H         1.248138        -2.328580        -0.210958
 H         1.514685        -1.571739         1.438941
