19
Iteration:  1512
 C         0.080487         0.419027        -0.321542
 C         1.502222         0.077071        -0.135656
 C         2.479984         1.229034        -0.538101
 C         3.786306         0.769547         0.052437
 C         3.368485        -0.116353         1.229959
 O         1.910658        -0.122171         1.281202
 C         4.066921        -0.745848        -0.045262
 O         3.351107        -1.475474        -0.998424
 C         1.967370        -1.313774        -0.771763
 H        -0.474036         0.598103         0.512969
 H         0.125506         1.334128        -0.953137
 H        -0.516033        -0.351348        -0.833311
 H         2.589321         1.404037        -1.634660
 H         2.136558         2.083924         0.006509
 H         4.504250         1.621524         0.136083
 H         3.844706        -0.050008         2.205395
 H         5.069948        -0.980454         0.147156
 H         1.390586        -1.505740        -1.707787
 H         1.538377        -2.070689        -0.183912
