19
Iteration:  3173charge 0 multiplicity 1
 C         0.094122         0.305394        -0.224836
 C         1.539868         0.019283        -0.161488
 C         2.421048         0.418184        -1.300028
 C         3.807447         0.553886        -0.801338
 C         3.536015         0.700599         0.748800
 O         2.135028         0.683410         1.012688
 C         4.046269        -0.601663         0.098267
 O         3.205105        -1.720596         0.119441
 C         1.711976        -1.584101         0.092619
 H        -0.070265         1.338299        -0.344592
 H        -0.364346        -0.182693        -1.114955
 H        -0.320875        -0.196479         0.681105
 H         2.518726        -0.356704        -2.209201
 H         2.084949         1.355582        -1.718480
 H         4.563306         1.030577        -1.418402
 H         4.115978         1.163562         1.624075
 H         5.018752        -0.982668         0.332582
 H         1.287834        -2.151179        -0.652683
 H         1.263527        -1.788303         1.165277
