19
Iteration:  1654
 C        -0.020067         0.274187        -0.277642
 C         1.533299         0.115249        -0.204371
 C         2.448067         1.272826        -0.488517
 C         3.785889         0.823454        -0.081134
 C         3.480974         0.008003         1.176197
 O         2.042042        -0.114332         1.199460
 C         4.081865        -0.719713         0.013947
 O         3.139857        -1.723280        -0.542535
 C         1.996998        -1.130953        -1.096204
 H        -0.336604        -0.709154        -0.424323
 H        -0.121547         0.543541         0.839944
 H        -0.459702         1.015836        -0.979621
 H         2.514402         1.530660        -1.575026
 H         2.181430         2.136376         0.132499
 H         4.779490         1.432360        -0.177831
 H         3.990732         0.112728         2.170923
 H         5.092438        -1.119550        -0.007117
 H         1.935921        -0.947864        -2.100872
 H         1.241980        -1.967348        -1.024592
