19
Iteration:  3585charge 0 multiplicity 1
 C         0.002946         0.269549        -0.145076
 C         1.479901         0.067524        -0.144882
 C         2.305236         0.126484        -1.472092
 C         3.768520         0.331920        -0.933828
 C         3.614212         0.772106         0.599613
 O         2.252398         0.897362         0.769307
 C         4.093285        -0.605057         0.150968
 O         3.211640        -1.708651         0.427028
 C         1.767943        -1.410456         0.315782
 H        -0.420921        -0.136192        -1.026145
 H        -0.456800        -0.308086         0.680557
 H        -0.252969         1.352411        -0.076327
 H         2.324965        -0.761191        -2.083978
 H         1.889504         1.028091        -2.103613
 H         4.498267         0.622773        -1.670346
 H         4.195257         1.405169         1.277529
 H         5.150937        -0.829019         0.349854
 H         1.324831        -2.051364        -0.341183
 H         1.363679        -1.585944         1.290505
