19
Iteration:  3329
 C         0.064658         0.326017        -0.235149
 C         1.515441         0.032234        -0.133554
 C         2.413659         0.234739        -1.406752
 C         3.786703         0.522777        -0.840095
 C         3.512502         0.598679         0.707753
 O         2.124339         0.783833         0.966398
 C         4.060942        -0.607692         0.170672
 O         3.210495        -1.737628         0.055479
 C         1.814667        -1.387820         0.316145
 H        -0.217799        -0.260264        -1.138573
 H        -0.488682         0.006082         0.688988
 H        -0.284207         1.277807        -0.454086
 H         2.393371        -0.846421        -1.924944
 H         2.193103         1.030818        -2.083862
 H         4.536315         1.190242        -1.230095
 H         4.075133         1.374600         1.128130
 H         5.018880        -1.165384         0.273189
 H         1.295864        -2.144464        -0.171320
 H         1.518788        -1.452680         1.493753
