19
Iteration:   984charge 0 multiplicity 1
 C         0.096799         0.512315        -0.129471
 C         1.573826         0.055650        -0.112709
 C         2.560116         1.230157        -0.399987
 C         3.712692         0.744265         0.372240
 C         3.301499        -0.376860         1.275631
 O         1.832401        -0.536049         1.166868
 C         4.059030        -0.662190        -0.019306
 O         3.382113        -1.167070        -1.185820
 C         1.982099        -1.071526        -1.126079
 H        -0.103178         1.034461         0.816433
 H        -0.088206         1.170492        -0.863791
 H        -0.547446        -0.333194        -0.289211
 H         2.727693         1.508287        -1.467929
 H         2.066124         2.152396        -0.100371
 H         4.531478         1.472944         0.471157
 H         3.678096        -0.511667         2.254915
 H         5.118487        -1.049728         0.049119
 H         1.658585        -0.964977        -2.179064
 H         1.509011        -2.069089        -0.856700
