19
Iteration:  2685charge 0 multiplicity 1
 C         0.029681         0.358560        -0.155835
 C         1.569872         0.031284        -0.234540
 C         2.409513         0.800700        -1.179550
 C         3.810690         0.633415        -0.538782
 C         3.387490         0.458644         0.900801
 O         2.000883         0.401094         1.117678
 C         4.096140        -0.661814         0.127228
 O         3.301456        -1.829570        -0.211337
 C         1.881450        -1.472664        -0.229562
 H        -0.208225         1.213478        -0.799182
 H        -0.588188        -0.558238        -0.317335
 H         0.023286         0.748255         0.790349
 H         2.398605         0.492576        -2.176036
 H         2.248808         1.938808        -1.192513
 H         4.629193         1.350300        -0.733713
 H         3.951426         1.051557         1.625930
 H         5.069800        -0.980712         0.362373
 H         1.385696        -2.011695        -1.109913
 H         1.452347        -1.813499         0.645562
