19
Iteration:  3814
 C         0.068771         0.435481        -0.121614
 C         1.490263        -0.159750        -0.167842
 C         2.257899         0.137168        -1.542181
 C         3.701595         0.254578        -1.055287
 C         3.571407         0.807609         0.397158
 O         2.254651         0.814137         0.662205
 C         4.140916        -0.552130         0.227291
 O         3.211745        -1.614508         0.691162
 C         1.769344        -1.514683         0.415969
 H        -0.633796        -0.210931         0.325938
 H         0.292116         1.276299         0.650733
 H        -0.343884         0.975119        -1.009112
 H         2.043657        -0.590542        -2.306620
 H         2.034878         1.071996        -2.036453
 H         4.569901         0.683070        -1.617491
 H         4.061042         1.694358         0.743073
 H         5.166347        -0.735671         0.586962
 H         1.478857        -2.238193        -0.360037
 H         1.289704        -1.648660         1.412916
