19
Iteration:  2692
 C         0.082454         0.355177        -0.165833
 C         1.547901        -0.012831        -0.253996
 C         2.450856         0.803272        -1.169230
 C         3.759437         0.643280        -0.522896
 C         3.437784         0.526216         0.905413
 O         1.997667         0.414702         1.109567
 C         4.062821        -0.696830         0.153575
 O         3.268789        -1.802921        -0.273261
 C         1.906451        -1.511117        -0.210394
 H        -0.126459         1.263011        -0.738046
 H        -0.627837        -0.429059        -0.452641
 H        -0.176114         0.670253         1.005882
 H         2.340884         0.444117        -2.214804
 H         2.224762         1.926496        -1.251183
 H         4.533071         1.328079        -0.785690
 H         3.989465         0.957320         1.711387
 H         5.073447        -0.979598         0.518658
 H         1.451103        -2.061841        -0.962008
 H         1.500879        -1.838895         0.817048
