19
Iteration:  1328
 C         0.067515         0.440578        -0.129567
 C         1.592058         0.045683        -0.207977
 C         2.588890         1.158828        -0.599517
 C         3.795160         0.754191         0.161994
 C         3.239733        -0.159139         1.235073
 O         1.870560        -0.238369         1.212167
 C         4.018819        -0.683510         0.012174
 O         3.398805        -1.293914        -1.107013
 C         1.935868        -1.227358        -0.849003
 H        -0.458785        -0.052035        -0.908488
 H        -0.367474         0.011435         0.796568
 H         0.034321         1.501815        -0.326770
 H         2.565323         1.061817        -1.691749
 H         2.259300         2.098007        -0.354723
 H         4.504777         1.470888         0.483112
 H         3.717777        -0.403225         2.188880
 H         4.968816        -1.144828         0.386381
 H         1.404349        -1.541973        -1.693487
 H         1.623763        -2.081878        -0.189322
