19
Iteration:   703
 C         0.041120         0.316116        -0.157610
 C         1.587457         0.143070        -0.164846
 C         2.466139         1.315497        -0.068371
 C         3.821732         0.732390         0.453835
 C         3.285642        -0.441503         1.252075
 O         1.901553        -0.621908         1.022957
 C         4.050478        -0.739914        -0.014135
 O         3.371276        -1.256176        -1.154742
 C         1.980940        -0.676516        -1.353421
 H        -0.195865         1.433401        -0.271801
 H        -0.455314        -0.240804        -1.029255
 H        -0.320019         0.020459         0.846362
 H         2.559656         1.834424        -1.018082
 H         2.035097         2.106087         0.649419
 H         4.673158         1.285131         0.897998
 H         3.601817        -0.903468         2.264688
 H         4.981599        -1.215978         0.012642
 H         2.104444        -0.076954        -2.333869
 H         1.266638        -1.644820        -1.431681
