19
Iteration:  2883charge 0 multiplicity 1
 C        -0.038382         0.260725        -0.216139
 C         1.516304         0.013109        -0.139824
 C         2.428149         0.658177        -1.255596
 C         3.843920         0.611857        -0.671751
 C         3.535495         0.584025         0.870569
 O         2.142601         0.596120         1.113670
 C         4.043552        -0.664290         0.156054
 O         3.229152        -1.801500        -0.084228
 C         1.806475        -1.506623        -0.167896
 H        -0.368711         0.290809        -1.274294
 H        -0.607033        -0.571151         0.272157
 H        -0.084669         1.190453         0.227414
 H         2.331285         0.106392        -2.102803
 H         2.047880         1.727966        -1.399775
 H         4.679937         1.213811        -0.977942
 H         4.068081         1.078563         1.652090
 H         5.065576        -0.960779         0.471037
 H         1.389549        -1.892778        -1.088249
 H         1.326753        -2.016024         0.724388
