19
Iteration:  3182
 C         0.037610         0.326137        -0.239274
 C         1.511003        -0.007591        -0.159699
 C         2.375002         0.479905        -1.347422
 C         3.786477         0.556833        -0.779973
 C         3.554706         0.681765         0.731932
 O         2.169859         0.660301         0.961025
 C         4.055469        -0.621484         0.130962
 O         3.215385        -1.799565         0.201810
 C         1.808809        -1.531477         0.075834
 H        -0.006781         1.371644        -0.023846
 H        -0.295971         0.128462        -1.220538
 H        -0.598903        -0.183878         0.570823
 H         2.213551        -0.291188        -2.187315
 H         1.969902         1.454798        -1.783593
 H         4.529293         1.145009        -1.265507
 H         4.139484         1.253015         1.493023
 H         5.090450        -0.887532         0.348980
 H         1.349461        -2.162752        -0.683706
 H         1.320733        -1.841208         1.081316
