19
Iteration:  2353
 C         0.031747         0.390540        -0.204351
 C         1.516707         0.069509        -0.175582
 C         2.481343         0.946873        -1.042167
 C         3.816248         0.754637        -0.250399
 C         3.394536         0.248591         1.087680
 O         1.985126         0.346097         1.176408
 C         4.038228        -0.742538         0.048852
 O         3.342491        -1.718691        -0.624670
 C         1.907607        -1.532885        -0.380823
 H        -0.552659        -0.312952         0.415783
 H        -0.166200         1.424764         0.055516
 H        -0.397821         0.339691        -1.198531
 H         2.416842         0.576652        -2.036280
 H         2.076837         2.006276        -0.807169
 H         4.612728         1.502609        -0.423837
 H         3.861943         0.358978         2.072439
 H         4.980822        -1.105176         0.435544
 H         1.332001        -2.091913        -1.046294
 H         1.778214        -1.995495         0.568714
