19
Iteration:  1294charge 0 multiplicity 1
 C         0.032248         0.311753        -0.312879
 C         1.570650         0.030679        -0.110790
 C         2.491944         1.235012        -0.428013
 C         3.827886         0.766273         0.128590
 C         3.395440        -0.122190         1.263159
 O         1.998842        -0.215651         1.258515
 C         4.039659        -0.647187        -0.051932
 O         3.269242        -1.528143        -0.893509
 C         1.887392        -1.079816        -1.081196
 H        -0.480600        -0.487436        -0.767721
 H        -0.563566         0.719777         0.551330
 H        -0.246053         1.137496        -0.986989
 H         2.632874         1.370425        -1.536230
 H         2.125179         2.037431         0.073250
 H         4.609914         1.511583         0.271738
 H         3.951354        -0.359473         2.209825
 H         5.111775        -1.035340         0.074160
 H         1.772554        -0.661129        -2.037538
 H         1.273530        -1.925083        -0.709468
