19
Iteration:   481
 C        -0.035559         0.425987        -0.123065
 C         1.535518         0.082748        -0.141201
 C         2.444446         1.355810         0.123207
 C         3.713770         0.678747         0.566386
 C         3.354132        -0.582680         1.143425
 O         1.924769        -0.792355         0.923231
 C         4.121229        -0.638067        -0.074466
 O         3.288855        -1.277979        -1.082166
 C         2.128987        -0.513232        -1.493706
 H        -0.236908         1.439371         0.183427
 H        -0.298512         0.143677        -1.119093
 H        -0.638419        -0.171197         0.689639
 H         2.745702         1.763343        -0.889643
 H         2.083912         2.190054         0.828344
 H         4.520876         1.337596         1.008983
 H         3.668812        -1.111555         2.073705
 H         5.159422        -0.945621        -0.091086
 H         2.456549         0.210029        -2.233560
 H         1.383836        -1.115185        -2.065521
