19
Iteration:  2043
 C         0.111042         0.297591        -0.090998
 C         1.589143         0.106260        -0.163652
 C         2.454023         1.160061        -0.814440
 C         3.735308         0.750183        -0.199083
 C         3.442854         0.258070         1.112385
 O         2.068312        -0.071393         1.163638
 C         4.030209        -0.706228         0.101173
 O         3.135853        -1.736691        -0.413297
 C         1.942339        -1.243402        -0.972575
 H        -0.362528         1.238762        -0.307131
 H        -0.233053        -0.325815        -0.975230
 H        -0.194557        -0.186796         0.929809
 H         2.459852         0.965341        -1.893856
 H         2.147798         2.174401        -0.577809
 H         4.590383         1.427074        -0.335440
 H         3.847123         0.510882         2.152784
 H         5.070701        -1.080099         0.122892
 H         2.191669        -0.950966        -2.018363
 H         0.972814        -1.969403        -0.898738
