19
Iteration:   345
 C         0.058272         0.457487        -0.072673
 C         1.559345         0.062592        -0.120612
 C         2.551523         1.353059         0.057330
 C         3.677924         0.572555         0.682822
 C         3.127391        -0.780482         1.160717
 O         1.753439        -0.772489         1.038149
 C         4.015397        -0.704275        -0.137817
 O         3.615341        -0.752439        -1.459038
 C         2.088323        -0.741965        -1.314114
 H        -0.452449         0.095431         0.917145
 H         0.016862         1.595430        -0.038629
 H        -0.583306         0.126719        -0.862879
 H         2.791455         1.698609        -0.965963
 H         2.195516         2.125257         0.668820
 H         4.532272         1.137921         1.148585
 H         3.545404        -1.362620         1.977453
 H         5.090108        -1.073266         0.094105
 H         1.730592        -0.484338        -2.357891
 H         1.712645        -1.741488        -1.076935
