19
Iteration:  3742
 C        -0.014882         0.169561        -0.231579
 C         1.548085        -0.025717        -0.105538
 C         2.378635         0.204513        -1.400650
 C         3.837159         0.280651        -1.010744
 C         3.556512         0.772196         0.546281
 O         2.191798         1.042075         0.707973
 C         4.023056        -0.645787         0.155285
 O         3.167394        -1.837821         0.247698
 C         1.820023        -1.287067         0.690255
 H        -0.406529         0.768459         0.661304
 H        -0.145749         0.770683        -1.169266
 H        -0.579090        -0.714096        -0.417452
 H         2.180277        -0.617437        -2.207529
 H         2.055711         1.188157        -1.932223
 H         4.618418         0.655533        -1.688261
 H         4.172259         1.433650         1.009934
 H         5.134166        -0.895645         0.354281
 H         1.069686        -2.068249         0.494376
 H         1.793104        -1.033527         1.760827
