19
Iteration:  2290charge 0 multiplicity 1
 C        -0.004498         0.290131        -0.213177
 C         1.560179         0.052001        -0.139266
 C         2.535809         0.959314        -1.029798
 C         3.821703         0.759209        -0.291538
 C         3.457791         0.251742         1.138484
 O         2.030603         0.186650         1.235899
 C         4.023867        -0.660244         0.062183
 O         3.249077        -1.649129        -0.513281
 C         1.843034        -1.396399        -0.557769
 H        -0.269592         1.153576         0.328082
 H        -0.134265         0.567376        -1.245691
 H        -0.676540        -0.636379        -0.032380
 H         2.509846         0.564067        -2.003939
 H         2.174874         2.008014        -1.080265
 H         4.772742         1.300616        -0.429863
 H         3.937728         0.481501         2.099721
 H         4.991917        -1.058306         0.226366
 H         1.479426        -1.739800        -1.511169
 H         1.304153        -1.952612         0.332114
