19
Iteration:  4029charge 0 multiplicity 1
 C         0.049172         0.346953        -0.054236
 C         1.516275        -0.003991        -0.104279
 C         2.289521        -0.041742        -1.467464
 C         3.716709         0.172796        -1.073412
 C         3.625167         0.856182         0.227495
 O         2.260730         1.023953         0.670614
 C         4.072083        -0.619303         0.222699
 O         3.179865        -1.540866         0.754221
 C         1.771898        -1.479303         0.361869
 H        -0.259384         0.731265         0.923118
 H        -0.176732         0.943550        -0.951560
 H        -0.522027        -0.701155        -0.109120
 H         2.354445        -0.983234        -2.074657
 H         1.968037         0.710548        -2.146166
 H         4.488429         0.357108        -1.862610
 H         4.200889         1.601000         0.660555
 H         5.133649        -0.882841         0.544586
 H         1.489364        -2.234369        -0.459214
 H         1.207558        -1.659138         1.216988
