19
Iteration:  4128
 C         0.088146         0.214032        -0.105744
 C         1.545688         0.079512        -0.129335
 C         2.356767        -0.125324        -1.522968
 C         3.722918         0.207494        -1.019017
 C         3.579598         0.803768         0.329041
 O         2.233569         1.093361         0.613363
 C         4.016406        -0.605209         0.266466
 O         3.152325        -1.718051         0.393008
 C         1.796568        -1.205369         0.740747
 H        -0.268319        -0.622925         0.475706
 H        -0.460976         1.185102         0.221766
 H        -0.230312        -0.156380        -1.197250
 H         2.265989        -1.217860        -1.849708
 H         1.957000         0.555389        -2.215093
 H         4.427356         0.486621        -1.756009
 H         4.406850         1.476461         0.711158
 H         5.063907        -0.763858         0.512445
 H         1.188441        -2.034638         0.416533
 H         1.624864        -0.950599         1.744040
