19
Iteration:  1474
 C         0.032838         0.322221        -0.079855
 C         1.534356         0.028917        -0.226511
 C         2.531109         1.205264        -0.627051
 C         3.807700         0.808954         0.093663
 C         3.378629        -0.055476         1.212498
 O         1.962870        -0.204537         1.180250
 C         4.076559        -0.646422         0.032837
 O         3.235989        -1.578126        -0.698396
 C         1.927195        -1.114447        -1.156071
 H        -0.261129         1.100518         0.759086
 H        -0.288043         0.728040        -1.037704
 H        -0.485285        -0.635648         0.072488
 H         2.766130         1.449099        -1.651881
 H         2.235387         2.200238        -0.178046
 H         4.660505         1.494994         0.157612
 H         3.754632        -0.020325         2.266271
 H         5.064476        -1.168094         0.000231
 H         2.051003        -0.810278        -2.225447
 H         1.273733        -2.062572        -0.999071
