19
Iteration:  4558
 C         0.032548         0.265245        -0.228808
 C         1.482487        -0.101439        -0.214303
 C         2.296290        -0.188589        -1.442259
 C         3.703438         0.198771        -1.102898
 C         3.624016         0.811643         0.265790
 O         2.262492         1.032602         0.544973
 C         4.031996        -0.587664         0.194515
 O         3.200947        -1.622989         0.658874
 C         1.845753        -1.180942         0.817476
 H        -0.183802         1.424145        -0.052918
 H        -0.475757         0.045477        -1.200082
 H        -0.429933        -0.215575         0.614369
 H         2.306425        -1.175219        -1.910654
 H         1.932891         0.619884        -2.218129
 H         4.524531         0.460300        -1.782622
 H         4.257943         1.587097         0.690239
 H         5.072039        -0.880849         0.314256
 H         1.204604        -2.051941         0.921838
 H         1.602190        -0.590696         1.766183
