19
Iteration:  3357
 C         0.039818         0.223249        -0.191469
 C         1.523204        -0.045380        -0.132637
 C         2.396584         0.294140        -1.407946
 C         3.878847         0.437375        -0.838302
 C         3.556545         0.765015         0.693873
 O         2.170555         0.948979         0.896803
 C         4.000552        -0.595806         0.204278
 O         3.172244        -1.820409         0.078794
 C         1.786205        -1.488193         0.296192
 H        -0.306040         0.496470        -1.189900
 H        -0.628090        -0.653114         0.079567
 H        -0.225612         1.147579         0.444774
 H         2.279027        -0.433286        -2.156970
 H         2.188100         1.306855        -1.797058
 H         4.699214         0.886106        -1.443162
 H         4.135746         1.411615         1.353548
 H         4.902132        -1.080229         0.534824
 H         1.196527        -2.270915        -0.322842
 H         1.516227        -1.576538         1.277151
