19
Iteration:  2299
 C        -0.021966         0.344566        -0.282034
 C         1.478787        -0.007503        -0.142118
 C         2.545050         0.912681        -1.013529
 C         3.853615         0.807929        -0.273851
 C         3.461476         0.230757         1.115806
 O         2.107968         0.189111         1.241120
 C         4.045200        -0.677287         0.120283
 O         3.236391        -1.579258        -0.581157
 C         1.803351        -1.455295        -0.482267
 H        -0.385011         1.043468         0.518976
 H        -0.151380         0.825456        -1.244310
 H        -0.668891        -0.561511        -0.243623
 H         2.570886         0.430627        -1.930334
 H         2.109405         1.941620        -1.282379
 H         4.674816         1.543632        -0.433777
 H         3.850779         0.520342         2.139491
 H         5.075188        -1.080936         0.301877
 H         1.343027        -1.709561        -1.398082
 H         1.507177        -2.222751         0.377771
