19
Iteration:  4791charge 0 multiplicity 1
 C         0.127559         0.326298        -0.205478
 C         1.530855        -0.039900        -0.082290
 C         2.212403        -0.160270        -1.511543
 C         3.737804         0.090122        -1.165200
 C         3.617269         0.884764         0.138044
 O         2.221443         0.988297         0.565263
 C         4.049561        -0.522264         0.163366
 O         3.208552        -1.525673         0.848151
 C         1.789374        -1.341286         0.744900
 H        -0.268126         0.366480         0.819326
 H         0.047463         1.351262        -0.599277
 H        -0.500786        -0.494649        -0.718312
 H         2.191694        -1.193866        -1.904848
 H         1.799433         0.606197        -2.222921
 H         4.531109         0.256416        -1.875841
 H         4.324251         1.661256         0.394259
 H         5.034404        -0.935251         0.320985
 H         1.268862        -2.287166         0.330712
 H         1.338194        -1.193062         1.747007
