19
Iteration:  2261
 C         0.060328         0.276252        -0.103384
 C         1.608020         0.038224        -0.210956
 C         2.410362         1.161228        -0.904275
 C         3.796602         0.758903        -0.346141
 C         3.403421         0.243608         1.061054
 O         2.039548         0.271767         1.138413
 C         4.009096        -0.755052         0.126482
 O         3.265772        -1.831649        -0.365753
 C         1.920355        -1.392208        -0.741304
 H        -0.104654         1.353216        -0.208462
 H        -0.465647        -0.236691        -0.943430
 H        -0.403637        -0.072467         0.838128
 H         2.337436         1.052193        -2.092078
 H         2.068114         2.077983        -0.436702
 H         4.698127         1.342300        -0.359192
 H         3.908801         0.564339         1.929510
 H         4.968055        -1.110179         0.392650
 H         1.837656        -1.627482        -1.861483
 H         1.192954        -2.005145        -0.325935
