19
Iteration:   393
 C         0.128245         0.460424        -0.236773
 C         1.587128         0.083363        -0.073842
 C         2.537533         1.313064         0.061427
 C         3.784723         0.660385         0.665909
 C         3.220092        -0.737170         1.244969
 O         1.853321        -0.832976         1.035094
 C         4.016902        -0.671962        -0.074555
 O         3.382939        -0.780451        -1.434638
 C         2.006178        -0.800378        -1.303858
 H        -0.352582        -0.187731        -1.050189
 H        -0.582738         0.385931         0.668397
 H         0.021263         1.578339        -0.553158
 H         2.795500         1.759948        -0.978754
 H         2.038210         2.120369         0.765799
 H         4.596886         1.165989         1.160893
 H         3.610112        -1.139933         2.223192
 H         4.973920        -1.078061        -0.080922
 H         1.653140        -0.335326        -2.212441
 H         1.514420        -1.804721        -1.107004
