19
Iteration:  2167
 C         0.057249         0.341922        -0.192107
 C         1.536958         0.036720        -0.166096
 C         2.457064         1.091087        -0.913022
 C         3.878287         0.737664        -0.245422
 C         3.376368         0.143601         1.140449
 O         1.973975         0.188953         1.196782
 C         4.024117        -0.702543         0.140867
 O         3.345323        -1.669148        -0.695649
 C         1.869506        -1.410542        -0.566751
 H        -0.462990        -0.576503        -0.629981
 H        -0.314916         0.520299         0.821539
 H        -0.158346         1.167689        -0.822027
 H         2.463638         0.895380        -1.889501
 H         2.117293         2.112024        -0.621507
 H         4.725278         1.385664        -0.444746
 H         3.802431         0.354859         2.102176
 H         5.104367        -0.947742         0.347100
 H         1.373381        -1.561795        -1.521320
 H         1.268125        -2.167967         0.130555
