19
Iteration:  1153charge 0 multiplicity 1
 C         0.106792         0.391572        -0.333476
 C         1.593768         0.060972        -0.067326
 C         2.577273         1.147501        -0.427565
 C         3.804888         0.730566         0.297388
 C         3.251070        -0.299723         1.273807
 O         1.858661        -0.281699         1.331358
 C         4.024696        -0.713542        -0.097263
 O         3.305680        -1.096608        -1.275559
 C         1.971614        -1.221776        -0.890599
 H         0.199226         1.330493        -0.842408
 H        -0.347263        -0.346403        -1.085355
 H        -0.513173         0.697844         0.499685
 H         2.696079         1.217156        -1.526247
 H         2.166948         2.092393         0.210446
 H         4.592936         1.480790         0.508963
 H         3.796473        -0.549081         2.128260
 H         4.950155        -1.241036        -0.031099
 H         1.347836        -1.413152        -1.829344
 H         1.933051        -2.008276        -0.129493
