19
Iteration:  4444charge 0 multiplicity 1
 C        -0.025931         0.296846        -0.176116
 C         1.523750         0.028230        -0.130526
 C         2.207036        -0.013370        -1.449204
 C         3.735921         0.056214        -1.108497
 C         3.626782         0.855653         0.193828
 O         2.283086         0.982213         0.642508
 C         4.049208        -0.566148         0.190520
 O         3.211866        -1.550711         0.888424
 C         1.884602        -1.405337         0.491350
 H        -0.471845        -0.395993        -0.865073
 H        -0.592603         0.262423         0.830379
 H        -0.158157         1.370340        -0.586940
 H         1.829345        -0.872297        -2.078741
 H         2.058986         0.865399        -2.025827
 H         4.439523         0.123183        -2.007225
 H         4.253258         1.656538         0.502037
 H         5.129615        -0.766381         0.410564
 H         1.750681        -2.218041        -0.258987
 H         1.252782        -1.567840         1.344911
