19
Iteration:  3722
 C         0.063463         0.259045        -0.235759
 C         1.531121         0.045272        -0.227705
 C         2.315570         0.179961        -1.527601
 C         3.707402         0.297204        -0.892770
 C         3.524929         0.698290         0.591839
 O         2.169194         1.012682         0.713516
 C         4.012902        -0.684892         0.155895
 O         3.190707        -1.798467         0.299273
 C         1.961006        -1.336093         0.641845
 H        -0.130589         1.120390         0.517226
 H        -0.309963         0.634255        -1.170662
 H        -0.527630        -0.651134         0.126376
 H         2.149486        -0.713104        -2.301285
 H         1.891124         1.069089        -2.051172
 H         4.510217         0.597899        -1.556390
 H         4.164850         1.282487         1.199358
 H         5.066424        -0.796630         0.507241
 H         1.421124        -2.173358         0.580712
 H         2.029595        -0.926516         1.747177
