19
Iteration:  4396
 C        -0.012632         0.329158        -0.129429
 C         1.527748        -0.070413        -0.195124
 C         2.292487        -0.026095        -1.519077
 C         3.800414         0.189914        -1.100392
 C         3.618664         0.815480         0.254560
 O         2.219271         0.949659         0.615011
 C         4.091318        -0.559054         0.203863
 O         3.236811        -1.566610         0.748600
 C         1.720194        -1.383897         0.596390
 H        -0.726166        -0.540410         0.322999
 H        -0.104301         1.122544         0.589011
 H        -0.424798         0.869906        -1.082217
 H         2.426699        -0.932503        -2.034117
 H         1.864829         0.785031        -2.191510
 H         4.510953         0.412442        -1.831973
 H         4.242331         1.636883         0.763803
 H         5.111574        -0.774707         0.383035
 H         1.358709        -2.410557         0.138109
 H         1.409933        -1.454627         1.679026
