19
Iteration:  1528charge 0 multiplicity 1
 C        -0.015415         0.467584        -0.436189
 C         1.576130        -0.053265        -0.080919
 C         2.493794         1.058662        -0.557855
 C         3.892313         0.782187         0.122185
 C         3.357842        -0.121208         1.209072
 O         1.924141        -0.034914         1.357502
 C         4.045145        -0.659851        -0.033216
 O         3.327755        -1.319225        -1.067008
 C         1.895593        -1.376149        -0.750007
 H        -0.368005         0.494149         0.752424
 H        -0.141948         1.433129        -0.950476
 H        -0.535854        -0.287265        -1.052351
 H         2.503923         1.099699        -1.729647
 H         2.141105         2.074276        -0.140214
 H         4.787589         1.345015         0.212516
 H         3.800684        -0.288766         2.194780
 H         5.090176        -1.175304         0.017680
 H         1.429835        -1.552851        -1.721505
 H         1.734244        -2.293481        -0.046101
