19
Iteration:  4278
 C         0.009047         0.348317        -0.112097
 C         1.500634        -0.044223        -0.131977
 C         2.288374        -0.049355        -1.417293
 C         3.764571         0.236421        -1.054918
 C         3.668305         0.877621         0.328820
 O         2.250789         0.988156         0.601459
 C         4.096497        -0.567787         0.150388
 O         3.192771        -1.626872         0.706838
 C         1.767383        -1.480703         0.466451
 H        -0.159851         0.928540         0.733219
 H        -0.242162         0.933459        -0.919364
 H        -0.663316        -0.576250        -0.241422
 H         2.207899        -1.037052        -1.909458
 H         1.881386         0.729758        -2.113804
 H         4.421536         0.629903        -1.780572
 H         4.187762         1.779443         0.830120
 H         5.063411        -0.919263         0.435736
 H         1.347640        -2.234436        -0.238000
 H         1.149560        -1.474889         1.404653
