19
Iteration:  2147
 C         0.036811         0.309917        -0.260618
 C         1.584642         0.078280        -0.133109
 C         2.573735         0.950837        -0.968835
 C         3.795091         0.755893        -0.105681
 C         3.364519         0.153181         1.175477
 O         1.952808         0.181469         1.311675
 C         3.995305        -0.736189         0.012972
 O         3.268540        -1.539250        -0.809828
 C         1.943736        -1.379048        -0.512710
 H        -0.452166        -0.656827        -0.101339
 H        -0.232028         0.963202         0.546704
 H        -0.326096         0.826895        -1.147272
 H         2.656395         0.469657        -1.985263
 H         2.320834         2.025682        -1.103128
 H         4.506089         1.556231        -0.283147
 H         3.932778         0.232265         2.114013
 H         5.026195        -1.227307         0.196821
 H         1.333479        -1.824057        -1.313253
 H         1.584005        -1.875297         0.422691
