19
Iteration:   745charge 0 multiplicity 1
 C         0.163769         0.566090        -0.155368
 C         1.533872         0.038408        -0.103577
 C         2.480413         1.254431        -0.202546
 C         3.720870         0.690183         0.566343
 C         3.198048        -0.521309         1.214049
 O         1.809962        -0.642851         1.124392
 C         4.081672        -0.664909        -0.064145
 O         3.466995        -0.961798        -1.389725
 C         1.988884        -1.027224        -1.151272
 H        -0.022521         1.344288         0.648992
 H         0.104479         1.055763        -1.056898
 H        -0.414496        -0.397803        -0.042915
 H         2.718461         1.392305        -1.222046
 H         2.134879         2.187010         0.228942
 H         4.400111         1.503340         0.885935
 H         3.612870        -1.075411         2.127152
 H         5.029916        -1.102541         0.071296
 H         1.539668        -0.900769        -2.131081
 H         1.868527        -2.013697        -0.661498
