19
Iteration:  2600
 C        -0.078845         0.376373        -0.171879
 C         1.533621         0.029898        -0.242225
 C         2.412268         0.922367        -1.152503
 C         3.792742         0.704832        -0.475069
 C         3.538379         0.406356         0.988397
 O         2.066286         0.371665         1.074036
 C         4.140269        -0.673082         0.096874
 O         3.268630        -1.887183        -0.091275
 C         1.864100        -1.519217        -0.399199
 H        -0.724056        -0.556523        -0.044623
 H        -0.171056         0.958704         0.805950
 H        -0.610357         0.985896        -0.869649
 H         2.422841         0.714298        -2.338672
 H         2.092974         1.912073        -1.016509
 H         4.566045         1.421395        -0.801141
 H         4.078647         0.930801         1.781422
 H         5.152287        -0.939694         0.103923
 H         1.704357        -1.672805        -1.419794
 H         1.123086        -2.126144         0.222149
