19
Iteration:   209
 C         0.040621         0.366727        -0.115343
 C         1.556853         0.147111        -0.134397
 C         2.505728         1.357880         0.231560
 C         3.744790         0.519942         0.781317
 C         3.201136        -0.903596         1.113281
 O         1.772757        -0.840894         0.905229
 C         4.074562        -0.693771        -0.091685
 O         3.516863        -0.774928        -1.400043
 C         2.067437        -0.475041        -1.420046
 H        -0.303821        -0.588103         0.253087
 H        -0.107792         1.192251         0.616729
 H        -0.441655         0.638170        -1.146740
 H         2.687398         1.896118        -0.652627
 H         2.049635         1.980263         1.013829
 H         4.596438         0.985128         1.273850
 H         3.476200        -1.475596         1.964484
 H         5.160427        -1.039510        -0.108685
 H         1.856855         0.232018        -2.273648
 H         1.515993        -1.455244        -1.562284
