19
Iteration:  1559
 C         0.105134         0.375602        -0.266022
 C         1.606990         0.091354        -0.111983
 C         2.559627         1.140681        -0.742570
 C         3.782247         0.775454         0.136162
 C         3.282505        -0.115269         1.222331
 O         1.883518        -0.139263         1.283348
 C         4.022222        -0.788007        -0.005087
 O         3.303064        -1.302199        -1.052226
 C         1.938904        -1.266214        -0.731778
 H        -0.214836         0.086477         0.784878
 H        -0.112115         1.391439        -0.634061
 H        -0.413288        -0.399867        -0.825934
 H         2.852557         0.756655        -1.817458
 H         2.339812         2.209092        -0.592985
 H         4.634767         1.400397         0.404594
 H         3.732981         0.006647         2.227112
 H         5.066682        -1.046581         0.157102
 H         1.336350        -1.519508        -1.511879
 H         1.633256        -2.028007        -0.045269
