19
Iteration:  3230charge 0 multiplicity 1
 C         0.029113         0.274528        -0.140212
 C         1.562229        -0.039470        -0.150881
 C         2.372765         0.508730        -1.352488
 C         3.782873         0.476003        -0.879222
 C         3.573507         0.700801         0.642913
 O         2.188243         0.696019         0.933308
 C         4.019504        -0.643608         0.197273
 O         3.155452        -1.719703         0.390074
 C         1.838435        -1.524209        -0.048334
 H        -0.348457         0.369416         0.944885
 H        -0.046161         1.217013        -0.808835
 H        -0.619695        -0.481605        -0.507479
 H         2.260682        -0.004440        -2.430544
 H         1.938268         1.485362        -1.428121
 H         4.677124         0.806923        -1.468117
 H         4.094184         1.431816         1.242324
 H         5.033884        -1.044118         0.336461
 H         1.677556        -1.937022        -1.050193
 H         1.115311        -2.126897         0.658533
