19
Iteration:  3914
 C         0.011600         0.435713        -0.156444
 C         1.492350        -0.055745        -0.166806
 C         2.298291        -0.007472        -1.471314
 C         3.727647         0.236416        -0.978161
 C         3.549524         0.794927         0.444668
 O         2.214683         0.948107         0.591777
 C         4.039894        -0.606191         0.196898
 O         3.269787        -1.706584         0.469237
 C         1.860553        -1.383478         0.623580
 H        -0.153743         1.168730        -0.985224
 H        -0.810318        -0.381138        -0.183825
 H        -0.067291         1.076558         0.679914
 H         2.295171        -1.030394        -1.826118
 H         1.854726         0.588106        -2.301760
 H         4.528024         0.627324        -1.593347
 H         4.072711         1.695458         0.807290
 H         5.134752        -0.712223         0.450550
 H         1.435901        -2.222460         0.238168
 H         1.624311        -1.268387         1.706232
