19
Iteration:  1283charge 0 multiplicity 1
 C         0.068784         0.278563        -0.310852
 C         1.552577         0.088078        -0.119284
 C         2.484634         1.279071        -0.375375
 C         3.821137         0.874751         0.086876
 C         3.415454        -0.146418         1.191946
 O         1.983038        -0.258574         1.244353
 C         4.015617        -0.705697        -0.001025
 O         3.223487        -1.593529        -0.841711
 C         1.936344        -1.055311        -1.110412
 H        -0.457713        -0.617407        -0.361450
 H        -0.226964         0.723889         0.673475
 H         0.121523         0.924196        -1.186005
 H         2.508579         1.782486        -1.366015
 H         2.204321         2.063623         0.219042
 H         4.633500         1.616974         0.080851
 H         3.751752        -0.075865         2.261410
 H         5.075209        -1.129765         0.008017
 H         1.773441        -0.768620        -2.125352
 H         1.192673        -1.904224        -1.122007
