19
Iteration:  2127charge 0 multiplicity 1
 C         0.046476         0.333108        -0.235823
 C         1.538415         0.002541        -0.074682
 C         2.569694         0.872023        -0.885884
 C         3.867282         0.850621        -0.106794
 C         3.381630         0.061844         1.168736
 O         1.983428         0.211138         1.205886
 C         4.079421        -0.666932         0.069314
 O         3.252623        -1.461498        -0.879991
 C         1.781157        -1.455740        -0.469234
 H        -0.585814        -0.269451         0.358196
 H        -0.183490         1.405665        -0.211377
 H        -0.141588         0.173229        -1.358306
 H         2.662169         0.558681        -2.069678
 H         2.100351         1.866160        -1.027549
 H         4.737947         1.502014        -0.005650
 H         3.810674         0.225288         2.200378
 H         5.102709        -1.168896         0.273414
 H         1.299574        -1.810293        -1.426712
 H         1.668240        -2.083597         0.331083
