19
Iteration:   943
 C         0.031220         0.518281        -0.207093
 C         1.519819         0.063813        -0.161741
 C         2.584899         1.221924        -0.292316
 C         3.755129         0.674245         0.427147
 C         3.257882        -0.472904         1.233987
 O         1.828189        -0.409699         1.257119
 C         4.058306        -0.666093        -0.098125
 O         3.425925        -1.007377        -1.300731
 C         1.999383        -1.193854        -1.046957
 H        -0.148805         1.630103        -0.289967
 H        -0.368051         0.047637        -1.231945
 H        -0.425068        -0.080310         0.656799
 H         2.926456         1.317264        -1.316864
 H         2.345636         2.203069         0.197830
 H         4.530453         1.390598         0.661700
 H         3.633227        -0.875551         2.175380
 H         5.111813        -1.109640        -0.013749
 H         1.476105        -1.132662        -2.002381
 H         1.786710        -2.108299        -0.546257
