19
Iteration:  3411charge 0 multiplicity 1
 C         0.055674         0.311899        -0.191765
 C         1.509781        -0.012155        -0.124593
 C         2.381412         0.351008        -1.460020
 C         3.761125         0.443051        -0.895429
 C         3.583994         0.752015         0.551603
 O         2.224202         0.700857         0.920110
 C         4.022807        -0.641542         0.138312
 O         3.170462        -1.662153         0.442079
 C         1.780398        -1.507878         0.196761
 H        -0.229076         1.384523        -0.055829
 H        -0.362409         0.029694        -1.212471
 H        -0.494806        -0.216965         0.707516
 H         2.325935        -0.365467        -2.227643
 H         2.168340         1.346317        -2.050875
 H         4.624942         0.866876        -1.451333
 H         4.125391         1.414454         1.164653
 H         5.040678        -1.031110         0.339809
 H         1.526212        -2.147494        -0.759044
 H         1.240255        -1.882896         1.063742
