19
Iteration:    62charge 0 multiplicity 1
 C         0.118579         0.343670        -0.199031
 C         1.553200         0.186604        -0.099655
 C         2.430637         1.280370         0.496834
 C         3.709934         0.494667         0.822763
 C         3.280756        -0.884441         1.092024
 O         1.870953        -0.960095         0.703900
 C         4.162913        -0.655387        -0.165555
 O         3.296024        -0.909257        -1.285450
 C         2.121581        -0.163706        -1.473274
 H        -0.362156        -0.717248        -0.566293
 H        -0.228891         0.555582         0.822710
 H        -0.250344         1.041270        -0.951582
 H         2.637064         2.103426        -0.283208
 H         2.029476         1.660548         1.464867
 H         4.405132         1.015177         1.444123
 H         3.384245        -1.549714         1.917272
 H         5.128460        -1.039983        -0.276694
 H         2.132177         0.780305        -2.107444
 H         1.339263        -0.826101        -2.012829
