19
Iteration:  4463
 C         0.036057         0.243915        -0.111588
 C         1.523971        -0.061114        -0.162887
 C         2.270474         0.007841        -1.610966
 C         3.705086         0.154338        -1.064367
 C         3.675640         0.832927         0.233875
 O         2.285864         0.955917         0.568272
 C         4.093536        -0.647603         0.207266
 O         3.172791        -1.444087         0.866780
 C         1.733533        -1.356340         0.579901
 H        -0.545637        -0.258134        -0.945479
 H        -0.326428        -0.366071         0.697207
 H        -0.010693         1.367752         0.119959
 H         2.164856        -0.891703        -2.184050
 H         1.933169         0.930116        -2.136417
 H         4.513151         0.475576        -1.800579
 H         4.259188         1.674641         0.481353
 H         5.126157        -1.042434         0.213562
 H         1.349247        -2.371581         0.127444
 H         1.164663        -1.404958         1.500518
