19
Iteration:  1772charge 0 multiplicity 1
 C         0.009470         0.344588        -0.288489
 C         1.529868         0.056230        -0.138021
 C         2.518061         1.185296        -0.623097
 C         3.853006         0.761256        -0.021273
 C         3.441839        -0.035420         1.140773
 O         1.943944         0.015742         1.249565
 C         4.076036        -0.720991        -0.027227
 O         3.295770        -1.538027        -0.796970
 C         1.886785        -1.293432        -0.798101
 H        -0.230179         1.248798        -0.734621
 H        -0.362232        -0.483029        -0.963647
 H        -0.590626         0.253661         0.647536
 H         2.454628         1.287270        -1.649982
 H         2.265857         2.135936        -0.051155
 H         4.586842         1.571683         0.148518
 H         3.893259        -0.028150         2.103786
 H         5.004925        -1.238012         0.216581
 H         1.398926        -1.564437        -1.801145
 H         1.383591        -2.044128        -0.228971
