19
Iteration:   942
 C         0.029474         0.507397        -0.211228
 C         1.523676         0.075331        -0.167806
 C         2.587221         1.227767        -0.284391
 C         3.757922         0.665040         0.422034
 C         3.252179        -0.476076         1.234952
 O         1.830912        -0.407542         1.265151
 C         4.056502        -0.665872        -0.099699
 O         3.433924        -1.012588        -1.299859
 C         1.992902        -1.188623        -1.049411
 H        -0.145395         1.612642        -0.316001
 H        -0.357520         0.040570        -1.176973
 H        -0.422081        -0.078824         0.646048
 H         2.862556         1.351471        -1.333671
 H         2.358714         2.212923         0.180330
 H         4.531284         1.388829         0.691805
 H         3.612539        -0.856216         2.154078
 H         5.115871        -1.085439        -0.025540
 H         1.448660        -1.140333        -1.986846
 H         1.774210        -2.109616        -0.559491
