19
Iteration:  1216charge 0 multiplicity 1
 C         0.086916         0.345052        -0.094499
 C         1.583774         0.078812        -0.182678
 C         2.532038         1.241347        -0.477288
 C         3.740333         0.795390         0.184907
 C         3.335996        -0.194454         1.265226
 O         1.942605        -0.368627         1.172339
 C         4.025160        -0.709413         0.055964
 O         3.305454        -1.474467        -0.892177
 C         1.959027        -0.988527        -1.210201
 H        -0.186122         0.707753         0.869535
 H        -0.242566         1.174723        -0.735815
 H        -0.473595        -0.531108        -0.456714
 H         2.489893         1.450595        -1.568713
 H         2.282707         2.226862        -0.139349
 H         4.561589         1.545205         0.142290
 H         3.731705        -0.125071         2.234876
 H         5.007858        -1.044656         0.059101
 H         1.922008        -0.579207        -2.275236
 H         1.196552        -1.818600        -1.243465
