19
Iteration:  4243
 C         0.091308         0.321318        -0.065209
 C         1.567260         0.055305        -0.245814
 C         2.221965         0.203342        -1.567753
 C         3.656219        -0.023955        -1.081219
 C         3.577939         0.862858         0.325724
 O         2.188530         0.959601         0.639810
 C         4.010036        -0.595444         0.236404
 O         3.256371        -1.670515         0.875990
 C         1.907914        -1.434491         0.375666
 H        -0.213663         1.050699         0.790057
 H        -0.313682         0.635952        -1.009222
 H        -0.382565        -0.626493         0.253930
 H         1.775294        -0.616416        -2.089664
 H         2.201598         1.157457        -2.201133
 H         4.510761         0.335747        -1.689273
 H         4.181115         1.716168         0.579422
 H         5.125853        -0.772275         0.381782
 H         1.761555        -2.334475        -0.295750
 H         1.267133        -1.459074         1.185006
