19
Iteration:  1338charge 0 multiplicity 1
 C         0.093216         0.450625        -0.117437
 C         1.503908         0.051572        -0.192907
 C         2.563347         1.104911        -0.641786
 C         3.851442         0.803693         0.271796
 C         3.259999        -0.146072         1.237130
 O         1.823048        -0.173828         1.179273
 C         4.010914        -0.710524        -0.001708
 O         3.372734        -1.247748        -1.123103
 C         1.985739        -1.389741        -0.867182
 H        -0.469240         0.178434        -0.987013
 H        -0.250232        -0.012950         0.872278
 H         0.016480         1.545831         0.164792
 H         2.811451         1.238469        -1.747942
 H         2.219163         2.039607        -0.344429
 H         4.733448         1.402882         0.320669
 H         3.573716        -0.342518         2.279681
 H         5.019790        -1.254675         0.051572
 H         1.584829        -1.507481        -1.838084
 H         1.817049        -2.160985        -0.074914
