19
Iteration:  1944charge 0 multiplicity 1
 C        -0.053065         0.443682        -0.211460
 C         1.514028        -0.001853        -0.143751
 C         2.545534         1.010001        -0.829132
 C         3.823926         0.837205         0.010672
 C         3.384723         0.023871         1.211452
 O         1.999026         0.074725         1.216096
 C         4.128071        -0.695455         0.094781
 O         3.349757        -1.487945        -0.947655
 C         1.833655        -1.482778        -0.646848
 H        -0.695116        -0.248119        -0.736038
 H        -0.492466         0.533909         0.852171
 H        -0.101492         1.537373        -0.711113
 H         2.575019         0.929225        -1.941638
 H         2.114165         2.042521        -0.840039
 H         4.495889         1.654742         0.034764
 H         3.689592        -0.066199         2.193570
 H         5.164470        -1.137149         0.193316
 H         1.273924        -1.592725        -1.517342
 H         1.696443        -2.304608         0.208861
