19
Iteration:  4971
 C        -0.010977         0.288551        -0.107109
 C         1.460190        -0.065773        -0.145350
 C         2.351549        -0.114456        -1.519864
 C         3.798962         0.165905        -1.070837
 C         3.626617         0.891596         0.231016
 O         2.229030         0.996208         0.510630
 C         4.088460        -0.569689         0.260945
 O         3.125615        -1.656437         0.575112
 C         1.837284        -1.245991         0.766818
 H        -0.291471         0.880562        -1.052150
 H        -0.495446        -0.613172         0.011860
 H        -0.260238         0.944626         0.670121
 H         2.113959        -1.105699        -2.016988
 H         1.931493         0.687508        -2.203639
 H         4.601520         0.185550        -1.746867
 H         4.328668         1.628055         0.679584
 H         5.065923        -0.712851         0.648586
 H         1.223032        -2.272959         0.688032
 H         1.705307        -0.876633         1.835973
