19
Iteration:  4012
 C         0.068251         0.214573        -0.119316
 C         1.596422        -0.065739        -0.205980
 C         2.229630         0.087607        -1.513846
 C         3.706290         0.096351        -1.095512
 C         3.627389         0.868253         0.377898
 O         2.279164         1.061435         0.625157
 C         3.978537        -0.571999         0.237965
 O         3.177914        -1.656003         0.730618
 C         1.836974        -1.385899         0.491279
 H         0.030644         0.920950         0.737719
 H        -0.335498         0.726925        -1.037604
 H        -0.513982        -0.556547         0.208897
 H         1.805730        -0.710491        -2.165407
 H         2.047331         1.106137        -2.015319
 H         4.544494         0.298302        -1.711985
 H         4.380461         1.716265         0.581667
 H         5.004771        -0.855788         0.310278
 H         1.443303        -2.084774        -0.243060
 H         1.183545        -1.583292         1.460151
