19
Iteration:  2796
 C         0.080624         0.319948        -0.158974
 C         1.563266         0.075569        -0.223646
 C         2.368771         0.783501        -1.288106
 C         3.755271         0.622738        -0.626599
 C         3.495393         0.515748         0.936906
 O         2.094300         0.499146         1.121473
 C         3.991156        -0.696357         0.142946
 O         3.280907        -1.828248        -0.036397
 C         1.872558        -1.523802        -0.267129
 H        -0.402809        -0.359370         0.635603
 H        -0.297400         1.346870         0.222470
 H        -0.473047         0.114608        -1.027718
 H         2.336113         0.205220        -2.234410
 H         2.155109         1.860705        -1.493651
 H         4.643529         1.136867        -1.075334
 H         3.958215         1.037910         1.780183
 H         5.097455        -0.932420         0.364424
 H         1.535485        -1.949758        -1.298122
 H         1.342172        -2.002108         0.462675
