19
Iteration:  3807
 C         0.059635         0.462766        -0.091834
 C         1.489575        -0.110353        -0.175155
 C         2.310277         0.094114        -1.566393
 C         3.720119         0.280248        -1.048496
 C         3.575202         0.747997         0.386889
 O         2.220583         0.837439         0.678278
 C         4.119652        -0.571712         0.265333
 O         3.216958        -1.601405         0.640332
 C         1.804552        -1.522690         0.438245
 H        -0.696678        -0.163795         0.465890
 H         0.121985         1.409174         0.435003
 H        -0.286088         0.795626        -1.031986
 H         2.087990        -0.743435        -2.216038
 H         1.940569         1.070372        -1.968240
 H         4.424034         0.972789        -1.518295
 H         4.031570         1.676631         0.644627
 H         5.216318        -0.827761         0.382729
 H         1.414144        -2.481463        -0.234516
 H         1.223804        -1.676676         1.325930
