19
Iteration:  4003
 C         0.075251         0.237468        -0.117365
 C         1.557466        -0.000876        -0.151655
 C         2.238688         0.165653        -1.569164
 C         3.682225         0.072274        -1.115650
 C         3.615251         0.822054         0.360668
 O         2.232007         1.030461         0.583235
 C         4.025119        -0.620464         0.266390
 O         3.223200        -1.694019         0.727513
 C         1.855714        -1.361043         0.540697
 H        -0.248658         1.034598         0.646773
 H        -0.285037         0.415480        -1.125791
 H        -0.376855        -0.709251         0.177586
 H         2.077554        -0.517953        -2.344771
 H         1.947039         1.199243        -1.953844
 H         4.520005         0.343741        -1.745828
 H         4.170450         1.705363         0.853035
 H         5.008710        -0.973828         0.318839
 H         1.394897        -2.100459        -0.002885
 H         1.338242        -1.181130         1.523246
