19
Iteration:  3166
 C         0.125825         0.294335        -0.227178
 C         1.603180        -0.061671        -0.121954
 C         2.456703         0.381170        -1.356926
 C         3.822333         0.577131        -0.761083
 C         3.537423         0.665588         0.742200
 O         2.097628         0.706871         1.045662
 C         4.022696        -0.588584         0.132345
 O         3.158994        -1.701684         0.026957
 C         1.704249        -1.496432         0.129715
 H        -0.351270         1.319690        -0.466835
 H        -0.391654        -0.505377        -0.875081
 H        -0.302393         0.096814         0.746073
 H         2.465284        -0.405040        -2.059508
 H         2.165410         1.368858        -1.706618
 H         4.619506         0.916250        -1.469276
 H         4.089176         1.260396         1.463055
 H         5.052226        -0.930584         0.287367
 H         1.352994        -2.242695        -0.702605
 H         1.345640        -1.843721         1.058448
