19
Iteration:  4342
 C        -0.025806         0.282562        -0.242243
 C         1.569451        -0.002803        -0.004002
 C         2.269140        -0.088937        -1.429101
 C         3.755783         0.159546        -1.011675
 C         3.544811         0.857446         0.382421
 O         2.222431         1.224254         0.494441
 C         4.036631        -0.625159         0.191123
 O         3.227711        -1.768704         0.472977
 C         1.912029        -1.392009         0.736651
 H        -0.818648        -0.315346         0.461289
 H        -0.206392         1.334295        -0.035396
 H        -0.287353         0.185953        -1.411421
 H         2.195736        -0.962760        -2.060342
 H         1.934203         0.862788        -1.938226
 H         4.357348         0.591157        -1.737100
 H         4.248971         1.556528         0.968537
 H         5.017464        -0.768882         0.587248
 H         1.177569        -2.177733         0.303370
 H         1.861013        -1.498213         1.781514
