19
Iteration:  3587charge 0 multiplicity 1
 C        -0.003925         0.273840        -0.148878
 C         1.473249         0.075088        -0.137541
 C         2.315430         0.129407        -1.471658
 C         3.772477         0.326899        -0.945836
 C         3.619027         0.774459         0.606729
 O         2.252926         0.899478         0.776698
 C         4.080843        -0.613691         0.144187
 O         3.203666        -1.701937         0.443074
 C         1.791801        -1.402840         0.287219
 H        -0.393515        -0.137801        -1.054490
 H        -0.449078        -0.425661         0.683959
 H        -0.303553         1.296429        -0.040737
 H         2.217082        -0.816283        -2.036835
 H         1.918940         1.018415        -2.092798
 H         4.507489         0.601833        -1.682736
 H         4.270238         1.440961         1.278104
 H         5.099387        -0.821359         0.326170
 H         1.312882        -2.096342        -0.393635
 H         1.354187        -1.595875         1.369933
