19
Iteration:  3842
 C         0.038940         0.268944        -0.152044
 C         1.561208         0.023202        -0.078604
 C         2.265584         0.198151        -1.527731
 C         3.659295         0.149359        -1.077187
 C         3.604151         0.757930         0.348394
 O         2.270095         0.968681         0.765755
 C         4.041759        -0.636472         0.186693
 O         3.187247        -1.602813         0.756981
 C         1.857764        -1.440059         0.348657
 H        -0.499398        -0.646327        -0.539584
 H        -0.343177         0.492317         0.806005
 H        -0.179996         1.082005        -0.883565
 H         1.918339        -0.709059        -2.171972
 H         2.111611         1.085034        -2.174474
 H         4.516537         0.554367        -1.574153
 H         4.274759         1.663034         0.545983
 H         5.047843        -0.990223         0.220362
 H         1.631528        -2.166136        -0.552968
 H         1.284812        -1.687664         1.280772
