19
Iteration:  1026
 C         0.064957         0.235506        -0.221633
 C         1.584385         0.136313        -0.162971
 C         2.453250         1.408922        -0.173052
 C         3.844649         0.744353         0.195615
 C         3.353603        -0.269435         1.275027
 O         1.908201        -0.405797         1.161058
 C         4.006844        -0.747843        -0.088730
 O         3.237029        -1.516544        -0.954875
 C         2.072850        -0.815269        -1.242904
 H        -0.357435        -0.193070         0.715188
 H        -0.363386         1.191124        -0.407454
 H        -0.401110        -0.321750        -1.009642
 H         2.429189         2.087610        -1.095177
 H         2.260759         2.153751         0.606668
 H         4.848776         1.210223         0.331907
 H         3.685221        -0.314642         2.265546
 H         5.053952        -1.065342        -0.301866
 H         2.124109        -0.326121        -2.242888
 H         1.244521        -1.639049        -1.277203
