19
Iteration:  1678
 C         0.101124         0.302959        -0.131212
 C         1.581281         0.066309        -0.105876
 C         2.500446         1.293787        -0.723590
 C         3.776439         0.792116        -0.084124
 C         3.317346        -0.003368         1.222755
 O         1.934499        -0.103801         1.207664
 C         4.023753        -0.731178         0.065209
 O         3.299634        -1.678222        -0.769411
 C         1.961281        -1.171973        -0.946088
 H        -0.354975        -0.418086        -0.864215
 H        -0.264631         0.218450         0.895892
 H         0.002853         1.291625        -0.516949
 H         2.556971         1.623006        -1.844649
 H         2.225962         2.135919        -0.117851
 H         4.619057         1.453613        -0.009777
 H         3.735026         0.097527         2.183247
 H         5.048052        -1.156098         0.291249
 H         1.686066        -0.952761        -1.969101
 H         1.275478        -2.023104        -0.758996
