19
Iteration:  1595
 C         0.023760         0.377844        -0.147581
 C         1.493754         0.029475        -0.180132
 C         2.489386         1.240517        -0.594667
 C         3.842338         0.770422         0.053274
 C         3.382183        -0.021278         1.177981
 O         1.981963        -0.096845         1.171790
 C         4.033842        -0.723937         0.067941
 O         3.315470        -1.602383        -0.778724
 C         1.946636        -1.247001        -1.054204
 H        -0.406773         0.085898         0.890056
 H        -0.219976         1.434130        -0.105414
 H        -0.617489        -0.077082        -0.940149
 H         2.533306         1.475923        -1.653786
 H         1.982847         2.173401        -0.146206
 H         4.710002         1.370215         0.207396
 H         3.711995         0.131980         2.174439
 H         5.108887        -1.048673         0.098508
 H         1.902816        -0.963764        -2.033621
 H         1.412539        -2.165145        -0.789388
