19
Iteration:  1499charge 0 multiplicity 1
 C         0.094586         0.374846        -0.237262
 C         1.622208         0.110947        -0.155824
 C         2.454338         1.289804        -0.586943
 C         3.773498         0.810833         0.055991
 C         3.318785        -0.109124         1.188127
 O         1.958146        -0.208200         1.203665
 C         4.018169        -0.679558         0.047298
 O         3.368926        -1.580463        -0.909832
 C         1.878211        -1.202167        -0.865189
 H        -0.279175         0.690427         0.697290
 H        -0.149117         1.129531        -0.956410
 H        -0.358882        -0.558762        -0.600256
 H         2.434298         1.471583        -1.598444
 H         2.142929         2.239737        -0.128072
 H         4.681171         1.351046         0.133333
 H         3.712968        -0.173474         2.161951
 H         5.027126        -1.129651         0.163105
 H         1.558192        -1.340228        -1.961237
 H         1.499049        -1.863914        -0.106948
