19
Iteration:  2403
 C         0.040015         0.283777        -0.225884
 C         1.571179         0.073746        -0.169256
 C         2.440677         0.993356        -1.009802
 C         3.760168         0.759686        -0.420035
 C         3.510597         0.334049         1.023263
 O         2.084686         0.242500         1.249625
 C         4.052716        -0.688332         0.102967
 O         3.180306        -1.858776        -0.228917
 C         1.893255        -1.343551        -0.634761
 H        -0.566013        -0.498189        -0.788312
 H        -0.441590         0.316931         0.824095
 H        -0.203751         1.258461        -0.638717
 H         2.361902         0.494965        -2.075235
 H         2.044748         1.964008        -1.044699
 H         4.605129         1.419680        -0.646713
 H         4.046192         0.781576         1.898513
 H         5.158243        -0.984318         0.157660
 H         1.856631        -1.331572        -1.817425
 H         1.095866        -2.162765        -0.311747
