19
Iteration:  4629
 C        -0.018376         0.353574        -0.061293
 C         1.532497        -0.060552        -0.191760
 C         2.318204        -0.113219        -1.581580
 C         3.735401         0.078886        -1.117010
 C         3.587230         0.816306         0.126950
 O         2.280368         0.942166         0.537445
 C         4.058332        -0.619067         0.197756
 O         3.222560        -1.353426         0.991653
 C         1.801598        -1.403754         0.555655
 H        -0.220767         0.906631         0.783583
 H        -0.528378         1.014383        -0.849391
 H        -0.576060        -0.627156         0.129135
 H         2.073045        -1.093209        -2.080771
 H         1.959763         0.732973        -2.141656
 H         4.399567         0.356494        -1.888355
 H         4.302448         1.649495         0.462366
 H         5.109037        -0.837593         0.320597
 H         1.532401        -2.346864        -0.013962
 H         1.152840        -1.411523         1.557372
