19
Iteration:   892charge 0 multiplicity 1
 C         0.008581         0.299300        -0.201214
 C         1.565936         0.074078        -0.165740
 C         2.510046         1.357562        -0.191741
 C         3.837993         0.771224         0.338894
 C         3.393224        -0.420299         1.272970
 O         1.886021        -0.514473         1.168190
 C         4.042084        -0.678321        -0.015102
 O         3.279413        -1.373286        -1.069095
 C         2.010550        -0.763376        -1.361775
 H        -0.087689         0.798117        -1.121549
 H        -0.505726        -0.677063        -0.115768
 H        -0.266968         0.821609         0.678620
 H         2.620280         2.002583        -1.111492
 H         2.124077         2.092900         0.547081
 H         4.701620         1.291145         0.701591
 H         3.663644        -0.435369         2.377104
 H         5.059907        -1.074925        -0.091480
 H         1.794647        -0.339159        -2.379572
 H         1.244585        -1.621857        -1.330911
