19
Iteration:  3529
 C        -0.013852         0.350087        -0.295013
 C         1.473641         0.015928        -0.074066
 C         2.311622         0.104142        -1.386282
 C         3.751216         0.404849        -0.852578
 C         3.562171         0.667469         0.616698
 O         2.167268         0.941405         0.809805
 C         4.103902        -0.651619         0.174899
 O         3.234748        -1.761673         0.180656
 C         1.899704        -1.392905         0.449669
 H        -0.740082        -0.473219        -0.251008
 H        -0.257122         1.092573         0.370050
 H        -0.128965         0.852712        -1.300408
 H         2.324810        -0.764933        -2.029093
 H         1.857864         0.962290        -2.006923
 H         4.458565         1.026682        -1.423995
 H         4.086199         1.439506         1.060724
 H         5.149269        -1.047221         0.329529
 H         1.291376        -2.171465         0.113600
 H         1.887728        -1.392853         1.570239
