19
Iteration:  1562
 C         0.114932         0.378068        -0.250929
 C         1.573236         0.108144        -0.142542
 C         2.562216         1.131433        -0.752603
 C         3.817469         0.772140         0.137514
 C         3.275495        -0.121500         1.223963
 O         1.884280        -0.143595         1.284561
 C         4.018698        -0.761196         0.000063
 O         3.321772        -1.339038        -1.038972
 C         1.932472        -1.253232        -0.751011
 H        -0.223219         0.074215         0.857972
 H        -0.199346         1.378738        -0.525544
 H        -0.431664        -0.426960        -0.795207
 H         2.804109         0.887858        -1.800151
 H         2.248056         2.232689        -0.578938
 H         4.648236         1.353944         0.390309
 H         3.688843        -0.013897         2.186077
 H         5.116066        -0.971218         0.209870
 H         1.320368        -1.464445        -1.624183
 H         1.612749        -2.020344         0.032352
