19
Iteration:  2149charge 0 multiplicity 1
 C         0.033856         0.296916        -0.250385
 C         1.591338         0.083594        -0.132904
 C         2.574991         0.956735        -0.949807
 C         3.784043         0.757183        -0.131822
 C         3.358167         0.153818         1.184378
 O         1.959335         0.177641         1.305111
 C         3.980251        -0.731725         0.017089
 O         3.272154        -1.555476        -0.794897
 C         1.950136        -1.371450        -0.522957
 H        -0.477790        -0.621439        -0.168490
 H        -0.244457         0.944536         0.569459
 H        -0.326378         0.930753        -1.133250
 H         2.614512         0.517407        -2.099772
 H         2.326134         2.010411        -1.100091
 H         4.569436         1.516816        -0.315067
 H         3.945502         0.235879         2.154350
 H         4.981874        -1.227900         0.218855
 H         1.377228        -1.843583        -1.371606
 H         1.673363        -1.799475         0.386984
