19
Iteration:   824
 C         0.028845         0.352614        -0.158829
 C         1.626846         0.076699        -0.151892
 C         2.508770         1.315396        -0.114412
 C         3.782888         0.755662         0.384086
 C         3.312354        -0.481335         1.292181
 O         1.885499        -0.522754         1.060220
 C         4.030435        -0.677962        -0.035418
 O         3.345955        -1.336611        -1.114366
 C         2.013779        -0.753018        -1.329020
 H        -0.369551        -0.608305        -0.409395
 H        -0.350509         0.852493         0.817951
 H        -0.283156         1.094899        -0.890196
 H         2.499638         1.767148        -1.094513
 H         2.040371         2.076933         0.577464
 H         4.555455         1.492517         0.628890
 H         3.661962        -0.653475         2.246644
 H         5.078392        -1.041590         0.037110
 H         1.906345        -0.330642        -2.371839
 H         1.330007        -1.621746        -1.463250
