19
Iteration:  4256charge 0 multiplicity 1
 C         0.070982         0.346245        -0.082357
 C         1.536578         0.004882        -0.115943
 C         2.242614         0.090479        -1.544005
 C         3.692875         0.069172        -1.049411
 C         3.546130         0.796392         0.274817
 O         2.214116         1.056998         0.615524
 C         4.018984        -0.598438         0.327752
 O         3.275517        -1.623997         0.760313
 C         1.889165        -1.499972         0.370181
 H         0.021002         1.095510         0.653701
 H        -0.277779         0.792984        -0.936511
 H        -0.640103        -0.522796         0.115774
 H         2.005576        -0.654242        -2.315759
 H         1.917956         1.089305        -1.932517
 H         4.522084         0.097319        -1.710111
 H         4.153456         1.740135         0.480857
 H         5.082657        -0.763374         0.525763
 H         1.548698        -2.128566        -0.456379
 H         1.290596        -1.796427         1.280246
