19
Iteration:  2091
 C         0.071223         0.414349        -0.251232
 C         1.579203         0.054558        -0.148180
 C         2.445902         1.126678        -0.869081
 C         3.775935         0.765812        -0.205849
 C         3.365058         0.130087         1.160555
 O         1.975917         0.053995         1.272683
 C         4.073695        -0.699481         0.067972
 O         3.382389        -1.736506        -0.711914
 C         1.854885        -1.380011        -0.647727
 H        -0.379276         0.772921         0.745635
 H        -0.130100         1.263924        -0.888029
 H        -0.434789        -0.447398        -0.503882
 H         2.268303         1.016880        -1.906633
 H         2.080772         2.132458        -0.421743
 H         4.553611         1.526164        -0.227741
 H         3.781067         0.589010         1.997072
 H         5.128193        -0.957667         0.204098
 H         1.411780        -1.665820        -1.578306
 H         1.420444        -1.911525         0.195042
