19
Iteration:  1398
 C         0.063822         0.291259        -0.348842
 C         1.546411         0.088938        -0.109667
 C         2.468235         1.277370        -0.550078
 C         3.821571         0.805618         0.074070
 C         3.425393        -0.113590         1.242506
 O         2.036250        -0.245084         1.272761
 C         3.979672        -0.667830        -0.022825
 O         3.283633        -1.533911        -0.841887
 C         1.870303        -1.145332        -0.955485
 H        -0.197740         1.231274        -0.865865
 H        -0.390726        -0.460296        -0.892856
 H        -0.380251         0.589669         0.562978
 H         2.486883         1.550714        -1.552337
 H         2.234952         2.180100         0.120160
 H         4.700567         1.509598         0.188014
 H         3.933182        -0.118139         2.244448
 H         5.018156        -0.969942         0.014586
 H         1.589256        -1.135697        -2.053532
 H         1.202360        -2.009633        -0.748112
