19
Iteration:  3151charge 0 multiplicity 1
 C         0.046915         0.251080        -0.185896
 C         1.526338         0.051425        -0.125575
 C         2.429634         0.387035        -1.391713
 C         3.797874         0.558667        -0.716809
 C         3.497328         0.680927         0.774849
 O         2.153986         0.719240         0.993446
 C         4.023007        -0.658877         0.227393
 O         3.181264        -1.775450        -0.094706
 C         1.840014        -1.460973         0.135789
 H         0.024916         1.003987        -0.892962
 H        -0.500294        -0.596444        -0.593611
 H        -0.343455         0.542279         0.810377
 H         2.425603        -0.493997        -2.180283
 H         2.030376         1.229449        -1.915000
 H         4.616740         1.177761        -1.005538
 H         4.132219         1.335603         1.440382
 H         4.992058        -1.033450         0.510307
 H         1.235616        -1.925499        -0.524858
 H         1.509288        -1.680298         1.230405
