19
Iteration:  4338
 C        -0.038817         0.285860        -0.261452
 C         1.559923         0.016504         0.000724
 C         2.258209        -0.071310        -1.406815
 C         3.757191         0.157755        -0.991118
 C         3.553045         0.861170         0.360524
 O         2.210196         1.182467         0.493253
 C         4.021874        -0.644082         0.197561
 O         3.227861        -1.745803         0.461003
 C         1.936772        -1.407520         0.758514
 H        -0.845625        -0.229130         0.356367
 H        -0.084851         1.415965        -0.100917
 H        -0.258854         0.094987        -1.246134
 H         2.325918        -0.893757        -2.140095
 H         1.934959         0.838035        -1.923446
 H         4.399328         0.627309        -1.800737
 H         4.213568         1.463804         0.886067
 H         5.118917        -0.753743         0.475766
 H         1.250451        -2.117134         0.246690
 H         1.782844        -1.430909         1.960575
