19
Iteration:   291charge 0 multiplicity 1
 C         0.055023         0.371059        -0.240771
 C         1.588508         0.147243        -0.101253
 C         2.484300         1.377311         0.316114
 C         3.738919         0.634877         0.654677
 C         3.250149        -0.723926         1.144302
 O         1.851676        -0.877988         0.988960
 C         4.032235        -0.670648        -0.138670
 O         3.382851        -1.084012        -1.365368
 C         2.142093        -0.446781        -1.399093
 H        -0.394482         1.441154        -0.227095
 H        -0.491988        -0.159741        -1.077612
 H        -0.312350        -0.028737         0.669878
 H         2.476562         1.935106        -0.696986
 H         2.140712         2.023738         1.125683
 H         4.528080         1.218470         1.218741
 H         3.667660        -1.132522         2.090394
 H         5.104031        -1.062638        -0.158709
 H         2.098397         0.333861        -2.197724
 H         1.354759        -1.115753        -1.706360
