19
Iteration:  4344
 C        -0.020376         0.276747        -0.231074
 C         1.562867        -0.016586        -0.013399
 C         2.280443        -0.087155        -1.435218
 C         3.746208         0.164688        -1.020433
 C         3.551125         0.852912         0.391789
 O         2.222403         1.239549         0.499620
 C         4.042693        -0.614312         0.194007
 O         3.233829        -1.781485         0.475908
 C         1.890116        -1.381369         0.719516
 H        -0.685148        -0.297861         0.421362
 H        -0.267103         1.293873         0.006482
 H        -0.282208         0.215638        -1.383830
 H         2.096190        -1.036456        -2.022764
 H         1.942427         0.823798        -1.946713
 H         4.416649         0.577167        -1.761926
 H         4.230622         1.570029         0.951160
 H         4.989276        -0.787609         0.640957
 H         1.197451        -2.153799         0.355445
 H         1.851860        -1.487919         1.744909
