19
Iteration:   553
 C        -0.039476         0.389942        -0.266175
 C         1.504792         0.153489        -0.168030
 C         2.620941         1.249486        -0.084113
 C         3.805995         0.587794         0.663658
 C         3.231379        -0.713789         1.189483
 O         1.831029        -0.604021         1.195095
 C         4.089652        -0.731238        -0.134845
 O         3.414939        -0.745726        -1.378890
 C         2.008325        -0.892611        -1.178412
 H        -0.410145        -0.067005         0.692847
 H        -0.095526         1.556377        -0.391442
 H        -0.489843        -0.117905        -1.065111
 H         3.027901         1.401352        -1.097429
 H         2.316560         2.210243         0.356855
 H         4.362997         1.341716         1.230530
 H         3.666520        -1.119001         2.194418
 H         5.004801        -1.239013        -0.183955
 H         1.660540        -0.599003        -2.244793
 H         1.775587        -1.934816        -0.962188
