19
Iteration:  4227
 C         0.004932         0.223498        -0.105956
 C         1.522090        -0.020562        -0.187896
 C         2.259267         0.140434        -1.589523
 C         3.690002         0.176587        -1.101710
 C         3.647702         0.740238         0.289778
 O         2.283534         0.946362         0.681435
 C         4.061478        -0.644672         0.213798
 O         3.203748        -1.534003         0.877084
 C         1.834796        -1.361573         0.417881
 H        -0.044938         1.007434         0.647370
 H        -0.537872         0.625168        -1.039782
 H        -0.554867        -0.676044         0.201122
 H         2.079624        -0.603228        -2.423858
 H         1.983624         1.129968        -1.857546
 H         4.455882         0.242366        -1.856152
 H         4.227485         1.577612         0.762163
 H         5.067561        -0.954250         0.323696
 H         1.543887        -2.060912        -0.377524
 H         1.167727        -1.549095         1.341207
