19
Iteration:  2114charge 0 multiplicity 1
 C         0.052792         0.369546        -0.293079
 C         1.525562        -0.023156        -0.144907
 C         2.516057         0.964786        -0.869898
 C         3.852053         0.776383        -0.114585
 C         3.406342         0.137352         1.174955
 O         2.002348         0.160004         1.266013
 C         3.978012        -0.689581         0.037617
 O         3.255828        -1.484249        -0.804015
 C         1.911780        -1.464792        -0.531328
 H        -0.575708         0.215030         0.616173
 H         0.001885         1.437515        -0.405837
 H        -0.392238        -0.214610        -1.067958
 H         2.628393         0.649331        -1.937457
 H         2.203049         2.052654        -0.713624
 H         4.566421         1.541732        -0.360437
 H         3.900156         0.110812         2.111832
 H         4.997912        -1.157480         0.254555
 H         1.371006        -1.803736        -1.420955
 H         1.674583        -2.130374         0.292040
