19
Iteration:  4170charge 0 multiplicity 1
 C         0.052242         0.461701        -0.172750
 C         1.523017         0.011109        -0.135842
 C         2.250359        -0.052204        -1.514742
 C         3.663866         0.143583        -1.033528
 C         3.526312         0.795100         0.347330
 O         2.162747         1.011602         0.620653
 C         4.095726        -0.580460         0.252252
 O         3.317170        -1.715186         0.565002
 C         1.893972        -1.409190         0.604417
 H        -0.348607         0.534698         0.781416
 H         0.021070         1.402152        -0.709274
 H        -0.615899        -0.332461        -0.665140
 H         2.018798        -1.018953        -2.066191
 H         2.050397         0.753582        -2.191339
 H         4.296113         0.546247        -1.805168
 H         4.068698         1.635332         0.839199
 H         5.148551        -0.862851         0.461369
 H         1.299184        -2.266626         0.327808
 H         1.742760        -1.190250         1.771925
