19
Iteration:   882
 C         0.058972         0.369038        -0.139174
 C         1.555279         0.070517        -0.172723
 C         2.452191         1.386330        -0.176919
 C         3.747089         0.775258         0.373430
 C         3.356953        -0.367968         1.238335
 O         1.914097        -0.585699         1.093658
 C         4.096303        -0.721066        -0.077461
 O         3.268540        -1.415457        -1.001867
 C         2.058675        -0.766500        -1.330742
 H        -0.368218         0.627270        -1.085797
 H        -0.494183        -0.499462         0.114578
 H        -0.197487         1.206224         0.446865
 H         2.567891         1.787260        -1.241467
 H         2.088487         2.153044         0.522988
 H         4.517566         1.506833         0.588470
 H         3.777867        -0.581813         2.288508
 H         5.089079        -1.151374        -0.044059
 H         2.214907         0.001112        -2.162614
 H         1.391220        -1.647587        -1.616121
