19
Iteration:  4097charge 0 multiplicity 1
 C        -0.033651         0.249156        -0.244556
 C         1.485895        -0.011383        -0.081506
 C         2.252790         0.023869        -1.417444
 C         3.722340         0.176940        -1.058251
 C         3.679299         0.801211         0.279707
 O         2.255792         1.099606         0.623102
 C         4.093164        -0.626750         0.174173
 O         3.252995        -1.676818         0.617814
 C         1.805311        -1.337497         0.688893
 H        -0.619521        -0.524633         0.257568
 H        -0.463002         1.316549        -0.037768
 H        -0.204185         0.051653        -1.339848
 H         2.062208        -0.900137        -2.044504
 H         1.875135         0.854852        -2.019008
 H         4.263866         0.413190        -1.923232
 H         4.473107         1.451903         0.764634
 H         5.107756        -0.903096         0.323213
 H         1.230298        -2.209399         0.238482
 H         1.501270        -1.234735         1.720830
