19
Iteration:  2489charge 0 multiplicity 1
 C        -0.005798         0.295975        -0.233773
 C         1.528892         0.029551        -0.099673
 C         2.464223         0.843304        -1.126227
 C         3.871080         0.732918        -0.385828
 C         3.453705         0.399038         1.042617
 O         2.057629         0.376601         1.201304
 C         4.081825        -0.688715         0.112190
 O         3.235104        -1.751803        -0.445211
 C         1.823984        -1.447945        -0.375261
 H        -0.130647         1.389193        -0.190761
 H        -0.335014        -0.096665        -1.242001
 H        -0.541300        -0.207147         0.534027
 H         2.429964         0.393595        -2.153884
 H         2.071999         1.841729        -1.078431
 H         4.702175         1.364139        -0.713603
 H         4.070286         0.484043         1.944880
 H         5.136089        -0.965746         0.467745
 H         1.451806        -1.671701        -1.360491
 H         1.265758        -2.136895         0.362077
