19
Iteration:  2045charge 0 multiplicity 1
 C         0.111404         0.298093        -0.096434
 C         1.572427         0.106896        -0.172808
 C         2.456210         1.142356        -0.831485
 C         3.734883         0.762373        -0.198410
 C         3.458545         0.253107         1.134572
 O         2.072241        -0.067372         1.176440
 C         4.037146        -0.696231         0.088766
 O         3.136134        -1.740807        -0.407928
 C         1.927472        -1.258285        -0.985087
 H        -0.345692         1.310104        -0.254164
 H        -0.192919        -0.284217        -0.988523
 H        -0.171811        -0.221757         0.832273
 H         2.466590         0.971694        -1.837129
 H         2.157710         2.199399        -0.502914
 H         4.590052         1.472105        -0.286859
 H         3.855611         0.540476         2.169261
 H         5.023246        -1.061429         0.113583
 H         2.090909        -0.991474        -2.015619
 H         1.031079        -1.960482        -0.917902
