19
Iteration:  1790charge 0 multiplicity 1
 C         0.108527         0.240320        -0.237063
 C         1.602072         0.135374        -0.210356
 C         2.521001         1.247683        -0.704867
 C         3.831910         0.824576        -0.070075
 C         3.395486         0.051449         1.241177
 O         2.019456        -0.144275         1.231359
 C         3.977080        -0.715515         0.071497
 O         3.241470        -1.655110        -0.735678
 C         1.843860        -1.177541        -0.854672
 H        -0.316369         1.286696        -0.316792
 H        -0.485293        -0.350083        -0.912658
 H        -0.279088        -0.050264         0.775486
 H         2.669651         1.173711        -1.841505
 H         2.174619         2.232618        -0.260157
 H         4.807211         1.368117        -0.219334
 H         3.645477         0.199671         2.347407
 H         4.976521        -1.033559         0.028362
 H         1.580768        -0.978234        -1.947893
 H         1.113389        -1.990468        -0.543604
