19
Iteration:  2221charge 0 multiplicity 1
 C         0.085633         0.308979        -0.162553
 C         1.531307         0.107270        -0.124914
 C         2.380049         1.069456        -0.974767
 C         3.780847         0.742935        -0.328615
 C         3.480472         0.237622         1.023829
 O         2.081800        -0.013068         1.201819
 C         4.046070        -0.696706         0.073190
 O         3.130180        -1.744134        -0.207407
 C         1.992583        -1.248902        -0.825933
 H        -0.044827         0.784152        -1.228390
 H        -0.450205        -0.677864        -0.114355
 H        -0.266347         0.892685         0.629972
 H         2.208303         0.921319        -2.005979
 H         2.167157         2.178850        -0.806174
 H         4.528490         1.514251        -0.329215
 H         3.992796         0.720062         1.866600
 H         5.130682        -1.025324         0.164417
 H         1.999439        -1.067681        -1.878517
 H         1.195482        -2.030733        -0.487358
