19
Iteration:   765charge 0 multiplicity 1
 C         0.041057         0.475046        -0.232083
 C         1.574601        -0.008078        -0.172665
 C         2.585502         1.251971        -0.182038
 C         3.817493         0.646921         0.487000
 C         3.210030        -0.543390         1.210047
 O         1.811607        -0.495302         1.218169
 C         4.008332        -0.707547        -0.098509
 O         3.420186        -0.832614        -1.311143
 C         2.027357        -1.097098        -1.155411
 H        -0.250337         0.615914         0.854645
 H        -0.046030         1.470672        -0.576972
 H        -0.704538        -0.243551        -0.757541
 H         2.694143         1.575216        -1.214580
 H         2.036814         1.950296         0.379522
 H         4.628673         1.132783         1.028555
 H         3.710333        -0.982677         2.153715
 H         5.004464        -1.148800        -0.045283
 H         1.598853        -0.998496        -2.104789
 H         1.862425        -1.984080        -0.660346
