19
Iteration:  1458
 C         0.038278         0.334015        -0.079313
 C         1.554323         0.087273        -0.162316
 C         2.452369         1.207923        -0.602721
 C         3.802668         0.780654         0.023282
 C         3.397614        -0.020782         1.252444
 O         1.990893        -0.265693         1.156147
 C         4.049897        -0.727214         0.077996
 O         3.222850        -1.623470        -0.665867
 C         1.993481        -1.012425        -1.233614
 H        -0.028775         1.339262         0.360406
 H        -0.560403         0.231925        -1.075645
 H        -0.335864        -0.492608         0.598334
 H         2.348112         1.154315        -1.813760
 H         2.099797         2.205297        -0.329473
 H         4.571631         1.567669         0.083143
 H         3.727018         0.091049         2.258313
 H         5.089543        -0.963159         0.180385
 H         2.254354        -0.476698        -2.159695
 H         1.366854        -1.887302        -1.384990
