19
Iteration:   718
 C         0.031815         0.492110        -0.165240
 C         1.506689         0.051154        -0.167592
 C         2.539551         1.304810        -0.147882
 C         3.768734         0.724963         0.527098
 C         3.315860        -0.571301         1.214266
 O         1.895607        -0.663772         1.099392
 C         4.077001        -0.649920        -0.022527
 O         3.367721        -1.113188        -1.165597
 C         1.990946        -0.864878        -1.330957
 H        -0.119571         1.545841        -0.029560
 H        -0.486022         0.197269        -1.218332
 H        -0.400160        -0.145678         0.584360
 H         2.746683         1.711786        -1.213666
 H         2.153142         2.105233         0.547216
 H         4.454065         1.504035         0.846864
 H         3.667876        -0.789133         2.170079
 H         5.143337        -1.084166        -0.007237
 H         1.804605        -0.306819        -2.273276
 H         1.472772        -1.813238        -1.380078
