19
Iteration:  4020
 C         0.090738         0.239463        -0.094974
 C         1.534051        -0.038427        -0.150354
 C         2.290935         0.020699        -1.501407
 C         3.718891         0.142828        -1.034027
 C         3.633466         0.850568         0.300601
 O         2.287173         1.069633         0.661463
 C         4.001359        -0.580482         0.195469
 O         3.180286        -1.593756         0.742758
 C         1.771092        -1.434700         0.405186
 H         0.072740         0.929239         0.708483
 H        -0.398512         0.908670        -0.878760
 H        -0.616386        -0.630392         0.014087
 H         1.910546        -0.931318        -2.051498
 H         1.896092         0.917954        -1.987527
 H         4.452086         0.214126        -1.828023
 H         4.346671         1.624133         0.525151
 H         5.078194        -0.710012         0.511852
 H         1.493561        -2.287046        -0.400936
 H         1.226301        -1.661107         1.363087
