19
Iteration:   603
 C         0.054029         0.478637        -0.122697
 C         1.553820         0.079838        -0.153768
 C         2.479256         1.314689        -0.021361
 C         3.727772         0.664125         0.594205
 C         3.268216        -0.565914         1.212475
 O         1.846133        -0.617892         1.049984
 C         4.076607        -0.666353        -0.067929
 O         3.477759        -1.111507        -1.314681
 C         1.978563        -0.851783        -1.355753
 H        -0.599679        -0.389255        -0.312576
 H        -0.183786         0.857855         0.824886
 H         0.051858         1.345952        -0.898771
 H         2.613433         1.816474        -0.966466
 H         1.931048         2.019347         0.702022
 H         4.489018         1.219545         1.095579
 H         3.675167        -0.996235         2.112316
 H         5.158956        -0.956505         0.001465
 H         1.781898        -0.415792        -2.344232
 H         1.657705        -1.929652        -1.158223
