19
Iteration:  1737charge 0 multiplicity 1
 C         0.173014         0.461367        -0.293719
 C         1.573988         0.046408        -0.134799
 C         2.506835         1.029005        -0.705975
 C         3.760341         0.798969         0.028563
 C         3.323149         0.002526         1.220393
 O         1.892106        -0.078644         1.342500
 C         3.974212        -0.719046        -0.037832
 O         3.326156        -1.413152        -1.023233
 C         1.944625        -1.388301        -0.669878
 H        -0.004200         1.135616        -1.134452
 H        -0.556535        -0.343631        -0.414814
 H        -0.139116         0.978554         0.659582
 H         2.714468         0.929957        -1.780402
 H         2.174669         2.145969        -0.579383
 H         4.602941         1.558341         0.128673
 H         3.811750        -0.053847         2.251457
 H         4.851604        -1.256594         0.163269
 H         1.373926        -1.783910        -1.679337
 H         2.017899        -1.861217         0.256011
