19
Iteration:  1360charge 0 multiplicity 1
 C         0.009317         0.436985        -0.172403
 C         1.521624         0.001851        -0.188548
 C         2.567750         1.110019        -0.625346
 C         3.785392         0.768432         0.172791
 C         3.305335        -0.189363         1.250888
 O         1.916573        -0.112363         1.254236
 C         4.027620        -0.682050         0.038357
 O         3.403325        -1.273413        -1.109092
 C         1.924246        -1.335837        -0.884581
 H        -0.155660         0.821484        -1.165872
 H        -0.723972        -0.403631         0.222212
 H         0.052418         1.200078         0.685180
 H         2.662004         1.080882        -1.780046
 H         2.256142         2.095221        -0.451539
 H         4.498933         1.475828         0.483962
 H         3.752381        -0.343529         2.229201
 H         5.034888        -1.183803         0.230533
 H         1.510828        -1.387190        -1.877353
 H         1.715071        -2.148432        -0.139141
