19
Iteration:  4364
 C         0.068939         0.211749        -0.123019
 C         1.578402         0.066485        -0.183808
 C         2.287606        -0.088063        -1.466961
 C         3.747089         0.170611        -0.990935
 C         3.559899         0.851249         0.298456
 O         2.192660         1.074834         0.605341
 C         4.025226        -0.616518         0.281188
 O         3.192920        -1.714097         0.502154
 C         1.841592        -1.244388         0.638098
 H        -0.503569        -0.668521         0.463549
 H        -0.116330         1.136715         0.399624
 H        -0.407609         0.309798        -1.217666
 H         2.417604        -1.071027        -1.838625
 H         1.960403         0.573159        -2.310447
 H         4.468193         0.357481        -1.727719
 H         4.290066         1.636710         0.685652
 H         5.068046        -0.788574         0.360918
 H         1.188824        -2.100296         0.240873
 H         1.582447        -0.984961         1.667403
