19
Iteration:  3704
 C         0.032767         0.348841        -0.186557
 C         1.511847        -0.029880        -0.070079
 C         2.372353         0.111989        -1.424066
 C         3.786771         0.344990        -0.993207
 C         3.545102         0.771026         0.460055
 O         2.139413         0.985947         0.720046
 C         4.074714        -0.642332         0.208925
 O         3.242119        -1.831643         0.330643
 C         1.814550        -1.369994         0.519663
 H        -0.250290         1.255071         0.301591
 H        -0.264575         0.438021        -1.222914
 H        -0.559460        -0.453385         0.336046
 H         2.261638        -0.789771        -1.967270
 H         2.012672         0.923940        -2.033457
 H         4.524543         0.920009        -1.537682
 H         4.159793         1.602868         0.977252
 H         5.070078        -0.928004         0.418361
 H         1.035559        -2.145557         0.018851
 H         1.672583        -1.332689         1.599064
