19
Iteration:  4320charge 0 multiplicity 1
 C         0.067075         0.324137        -0.286621
 C         1.515445        -0.072837        -0.093004
 C         2.270821        -0.027617        -1.428101
 C         3.719606         0.212541        -1.053545
 C         3.578700         0.825781         0.347524
 O         2.178330         1.027645         0.645139
 C         4.096641        -0.590401         0.208965
 O         3.241507        -1.732932         0.482043
 C         1.829409        -1.289114         0.723123
 H        -0.535277         0.044092         0.697502
 H        -0.069849         1.387290        -0.459281
 H        -0.381345        -0.194011        -1.249225
 H         2.038515        -0.979839        -1.867337
 H         1.886381         0.839541        -2.038228
 H         4.479490         0.410905        -1.763662
 H         4.179425         1.729898         0.671186
 H         5.120315        -0.844733         0.442594
 H         1.228924        -2.249778         0.648458
 H         1.827795        -1.068607         1.742275
