19
Iteration:   494
 C        -0.013947         0.480982        -0.159268
 C         1.537198         0.142161        -0.151724
 C         2.456214         1.298447         0.111464
 C         3.763231         0.719035         0.545415
 C         3.321238        -0.661154         1.266535
 O         1.928734        -0.794931         0.982075
 C         4.051537        -0.614312        -0.110431
 O         3.353337        -1.242894        -1.176940
 C         2.106865        -0.610652        -1.452107
 H        -0.276086         1.446525         0.298391
 H        -0.416000         0.610121        -1.129699
 H        -0.599500        -0.473621         0.252177
 H         2.467358         1.990145        -0.765751
 H         1.966828         1.978275         0.984764
 H         4.612109         1.373102         0.794224
 H         3.631181        -0.942816         2.230965
 H         5.155514        -0.866701        -0.233219
 H         2.191865         0.192868        -2.182131
 H         1.504364        -1.430345        -1.881720
