19
Iteration:   774charge 0 multiplicity 1
 C         0.020710         0.412501        -0.246741
 C         1.487829         0.027307        -0.168354
 C         2.554733         1.249954        -0.160374
 C         3.885073         0.584471         0.515219
 C         3.238543        -0.506218         1.253515
 O         1.820618        -0.443232         1.195756
 C         4.070508        -0.707676        -0.082053
 O         3.406834        -0.868870        -1.330801
 C         1.975181        -1.036395        -1.139296
 H        -0.422312         0.112118         0.714981
 H        -0.021731         1.504117        -0.480599
 H        -0.465555        -0.246562        -1.036005
 H         2.813736         1.631590        -1.216383
 H         2.214503         2.097135         0.433391
 H         4.740481         1.189374         0.753012
 H         3.580890        -1.117812         2.135840
 H         5.140765        -1.101184        -0.066039
 H         1.564548        -0.947503        -2.128451
 H         1.837270        -2.057912        -0.762199
