19
Iteration:  1592charge 0 multiplicity 1
 C        -0.002396         0.377032        -0.152030
 C         1.506154         0.020723        -0.163146
 C         2.501119         1.236098        -0.583965
 C         3.848628         0.775534         0.065021
 C         3.384486        -0.037597         1.177937
 O         1.974577        -0.080719         1.156064
 C         4.030842        -0.737325         0.060536
 O         3.320234        -1.573557        -0.798384
 C         1.951250        -1.277136        -1.041066
 H        -0.417433         0.144109         0.882453
 H        -0.222929         1.430718        -0.089632
 H        -0.658251        -0.094337        -0.867118
 H         2.601087         1.492100        -1.716372
 H         2.064543         2.189205        -0.236926
 H         4.677081         1.433732         0.171754
 H         3.664014         0.059065         2.215364
 H         5.106193        -1.012264         0.177774
 H         1.826727        -0.985431        -2.072691
 H         1.421213        -2.134758        -0.685788
