19
Iteration:  3874charge 0 multiplicity 1
 C        -0.012142         0.170241        -0.180862
 C         1.556422         0.013899        -0.085965
 C         2.300706         0.221151        -1.471073
 C         3.721612         0.169286        -1.057202
 C         3.677700         0.797602         0.350857
 O         2.289497         0.998789         0.670317
 C         3.994233        -0.613628         0.201429
 O         3.167407        -1.643192         0.691051
 C         1.833655        -1.393900         0.441113
 H        -0.462912        -0.096502        -1.188859
 H        -0.483807        -0.473313         0.490452
 H        -0.288200         1.211253         0.090028
 H         2.108935        -0.706961        -2.013599
 H         2.057772         1.143065        -1.995244
 H         4.521076         0.334331        -1.749616
 H         4.392466         1.642454         0.674850
 H         4.936476        -1.078517         0.163108
 H         1.125500        -2.176705        -0.166737
 H         1.344328        -1.478216         1.424665
