19
Iteration:  2952
 C         0.047028         0.365304        -0.255474
 C         1.523885        -0.046008        -0.171721
 C         2.355545         0.663826        -1.260319
 C         3.824773         0.605410        -0.616075
 C         3.494984         0.520861         0.854708
 O         2.074285         0.650888         0.965890
 C         4.055282        -0.669483         0.160675
 O         3.258391        -1.814880        -0.182390
 C         1.890543        -1.580760         0.124482
 H        -0.073180         1.378040         0.229701
 H        -0.293710         0.480323        -1.252115
 H        -0.570708        -0.343895         0.412111
 H         2.178211         0.048643        -2.189313
 H         2.086467         1.657728        -1.333311
 H         4.601468         1.291692        -1.011361
 H         3.998154         1.227571         1.579219
 H         5.065895        -1.010489         0.270546
 H         1.284752        -2.308080        -0.602125
 H         1.518017        -1.745497         1.196186
