19
Iteration:   950
 C         0.047197         0.540956        -0.218542
 C         1.512345         0.001412        -0.106810
 C         2.564271         1.177644        -0.345675
 C         3.768527         0.738672         0.469047
 C         3.290841        -0.459419         1.245523
 O         1.815683        -0.430445         1.190347
 C         4.063609        -0.683645        -0.074099
 O         3.369935        -0.985214        -1.304991
 C         2.032582        -1.182812        -1.038571
 H        -0.082588         1.600844        -0.002398
 H        -0.359677         0.328055        -1.094601
 H        -0.531315         0.105561         0.566889
 H         3.104187         1.254149        -1.318820
 H         2.143475         2.057264         0.118109
 H         4.609907         1.453533         0.601745
 H         3.703004        -0.859667         2.120237
 H         4.986942        -1.217926         0.048808
 H         1.659872        -1.170884        -2.073064
 H         1.855201        -2.141014        -0.454099
