19
Iteration:  2257
 C         0.043444         0.277150        -0.097079
 C         1.585375         0.036027        -0.204508
 C         2.389141         1.158260        -0.919199
 C         3.826921         0.746633        -0.331140
 C         3.437768         0.246660         1.065895
 O         2.036732         0.259933         1.123618
 C         3.982972        -0.732694         0.135320
 O         3.253390        -1.828333        -0.345924
 C         1.944564        -1.408303        -0.784633
 H        -0.194938         1.301321        -0.314205
 H        -0.454024        -0.257398        -0.876374
 H        -0.477949         0.074416         0.906641
 H         2.357592         1.182518        -1.941041
 H         2.163132         2.100858        -0.413886
 H         4.764602         1.346549        -0.438884
 H         4.054426         0.555452         1.943178
 H         5.012287        -1.056757         0.352768
 H         1.892741        -1.597354        -1.838527
 H         1.136755        -2.090262        -0.326181
