19
Iteration:  2678charge 0 multiplicity 1
 C         0.014553         0.353332        -0.175490
 C         1.511962         0.061014        -0.171401
 C         2.430246         0.829760        -1.215378
 C         3.847671         0.660615        -0.572122
 C         3.406584         0.376849         0.953137
 O         2.047499         0.404466         1.105712
 C         4.082457        -0.655262         0.109959
 O         3.334231        -1.825648        -0.139780
 C         1.839282        -1.449256        -0.285887
 H        -0.388206         0.960405        -1.028139
 H        -0.611562        -0.543200        -0.136043
 H        -0.127864         0.812539         0.879684
 H         2.346382         0.352547        -2.324987
 H         2.079752         1.801926        -1.087828
 H         4.691324         1.324671        -0.829080
 H         3.832810         1.058701         1.718286
 H         5.173824        -0.929685         0.189094
 H         1.478568        -1.883770        -1.274727
 H         1.248136        -1.983770         0.602715
