19
Iteration:  4054
 C         0.026640         0.431701        -0.135660
 C         1.471942        -0.044359        -0.206240
 C         2.258530        -0.067715        -1.569100
 C         3.659417         0.169749        -1.065496
 C         3.594018         0.808851         0.317567
 O         2.267092         0.888680         0.701133
 C         4.086568        -0.579362         0.180706
 O         3.288957        -1.525605         0.795197
 C         1.803546        -1.423668         0.469527
 H        -0.179297         0.235274         0.900384
 H         0.082011         1.551696        -0.347347
 H        -0.725814        -0.068714        -0.701160
 H         2.157950        -1.034047        -2.159885
 H         1.851338         0.763404        -2.205508
 H         4.463270         0.330086        -1.727815
 H         4.168689         1.740658         0.613120
 H         5.126318        -0.709321         0.404576
 H         1.515420        -2.349802        -0.189971
 H         1.261892        -1.429434         1.466910
