19
Iteration:   528charge 0 multiplicity 1
 C         0.111823         0.412564        -0.220294
 C         1.567910         0.111288        -0.067832
 C         2.512470         1.331977         0.062121
 C         3.824864         0.686278         0.574262
 C         3.217662        -0.679155         1.201275
 O         1.828860        -0.636148         1.081381
 C         3.980376        -0.687437        -0.113662
 O         3.432355        -0.991347        -1.382349
 C         2.023266        -0.808443        -1.289814
 H        -0.363927         0.479229         0.753462
 H         0.027990         1.221274        -0.915594
 H        -0.319439        -0.560361        -0.650354
 H         2.588317         1.906257        -0.862199
 H         2.079009         2.000746         0.933593
 H         4.591257         1.293053         0.999416
 H         3.453155        -1.006014         2.186810
 H         5.018714        -1.111410        -0.094104
 H         1.766505        -0.423760        -2.224880
 H         1.536047        -1.818094        -1.219943
