19
Iteration:  3349
 C        -0.010567         0.231453        -0.249616
 C         1.509076        -0.031990        -0.112366
 C         2.404797         0.258418        -1.407325
 C         3.838665         0.477077        -0.786920
 C         3.579216         0.801618         0.712376
 O         2.202367         0.878285         0.900298
 C         4.032753        -0.659869         0.182165
 O         3.152671        -1.772233         0.049427
 C         1.794644        -1.429903         0.278590
 H        -0.250872         0.324345        -1.248044
 H        -0.476218        -0.506215         0.484627
 H        -0.186738         1.084714         0.317734
 H         2.341958        -0.689838        -2.102486
 H         2.140942         1.117248        -1.928825
 H         4.601590         0.898715        -1.457158
 H         4.092395         1.308535         1.445120
 H         5.072296        -0.940982         0.564467
 H         1.142818        -2.177897        -0.231245
 H         1.480081        -1.498767         1.430843
