19
Iteration:  1544
 C         0.084668         0.368091        -0.309640
 C         1.495278         0.019815        -0.099318
 C         2.589457         1.054236        -0.661381
 C         3.830427         0.787653         0.152731
 C         3.354688        -0.126022         1.255652
 O         1.936176        -0.066920         1.314080
 C         4.019743        -0.720180         0.023897
 O         3.278448        -1.239154        -1.125676
 C         1.915297        -1.359679        -0.709853
 H        -0.617647         0.552607         0.395127
 H         0.086038         1.375531        -0.780103
 H        -0.348226        -0.286203        -1.074387
 H         2.704472         0.901545        -1.712540
 H         2.182652         2.045453        -0.639446
 H         4.552384         1.651390         0.160941
 H         3.864357        -0.319636         2.208260
 H         4.902389        -1.335740         0.143066
 H         1.352543        -1.496040        -1.762461
 H         1.828263        -2.120893         0.085958
