19
Iteration:  2648charge 0 multiplicity 1
 C         0.101160         0.209316        -0.236414
 C         1.535932         0.014724        -0.129042
 C         2.398296         0.809819        -1.128374
 C         3.794944         0.699196        -0.522113
 C         3.536158         0.530024         0.925487
 O         2.184911         0.406276         1.200225
 C         4.001500        -0.702174         0.092832
 O         3.135835        -1.788220        -0.031450
 C         1.837044        -1.435578        -0.518910
 H        -0.336216         0.070743        -1.222296
 H        -0.511256        -0.326011         0.472641
 H        -0.164411         1.344748         0.113205
 H         2.308010         0.381904        -2.153603
 H         1.909368         1.840447        -1.145529
 H         4.630930         1.249879        -0.933605
 H         4.053661         1.150642         1.660851
 H         5.079610        -1.054550         0.097650
 H         1.737237        -1.613637        -1.549123
 H         1.122961        -2.080299         0.047841
