19
Iteration:  4901charge 0 multiplicity 1
 C         0.077159         0.316084        -0.173633
 C         1.528185        -0.060934        -0.194233
 C         2.221900        -0.186871        -1.555947
 C         3.723526         0.075200        -1.104895
 C         3.574245         0.872771         0.215438
 O         2.264037         0.997866         0.643144
 C         4.100850        -0.594987         0.214174
 O         3.204652        -1.529187         0.709159
 C         1.796851        -1.261714         0.735138
 H         0.013385         1.263071         0.190650
 H        -0.385064         0.076787        -1.186617
 H        -0.584118        -0.204068         0.572389
 H         2.162168        -1.057658        -2.191827
 H         1.908009         0.649432        -2.188460
 H         4.476119         0.313751        -1.925298
 H         4.220828         1.711559         0.401235
 H         5.132322        -0.786904         0.654404
 H         1.179234        -2.178081         0.593004
 H         1.531182        -0.817963         1.695287
