19
Iteration:   523charge 0 multiplicity 1
 C         0.146276         0.387850        -0.201077
 C         1.594433         0.125526        -0.075643
 C         2.474384         1.342666         0.124173
 C         3.795749         0.702694         0.531997
 C         3.199103        -0.656127         1.189914
 O         1.831271        -0.652073         1.041409
 C         4.010110        -0.719506        -0.110795
 O         3.421732        -1.023746        -1.355457
 C         2.030277        -0.793601        -1.283068
 H        -0.331576         0.695407         0.759300
 H         0.142723         1.194671        -0.994981
 H        -0.318580        -0.516406        -0.526753
 H         2.526836         1.915721        -0.828811
 H         2.098973         1.956234         0.861348
 H         4.538466         1.382064         1.049857
 H         3.560966        -0.903791         2.227843
 H         4.977160        -1.168688        -0.059118
 H         1.661062        -0.312612        -2.293832
 H         1.509413        -1.761878        -1.431857
