19
Iteration:   248
 C         0.057646         0.436001        -0.176338
 C         1.568470         0.103289        -0.195883
 C         2.401565         1.309001         0.315800
 C         3.792217         0.667252         0.691877
 C         3.282215        -0.743186         1.243116
 O         1.896415        -0.953502         0.893416
 C         4.074977        -0.683370        -0.110944
 O         3.356291        -1.059596        -1.306556
 C         2.068806        -0.363660        -1.515997
 H        -0.592631         0.282716        -1.123106
 H        -0.424409        -0.185939         0.606526
 H        -0.063558         1.423340         0.146372
 H         2.609108         2.159026        -0.475006
 H         1.902577         1.693367         1.240530
 H         4.649966         1.130942         1.259672
 H         3.541029        -1.121462         2.263666
 H         5.169507        -0.923626        -0.191978
 H         2.175554         0.438016        -2.231287
 H         1.455875        -1.063640        -2.066627
