19
Iteration:  3841charge 0 multiplicity 1
 C         0.039654         0.275924        -0.147768
 C         1.562950         0.019028        -0.082948
 C         2.274283         0.194842        -1.525582
 C         3.655944         0.150730        -1.082434
 C         3.606790         0.762286         0.344112
 O         2.263400         0.961883         0.766784
 C         4.032287        -0.634883         0.194216
 O         3.187803        -1.601896         0.754434
 C         1.861558        -1.443792         0.350153
 H        -0.502332        -0.649348        -0.520829
 H        -0.346858         0.548666         0.798183
 H        -0.162009         1.061049        -0.870765
 H         1.933819        -0.664611        -2.144431
 H         2.113426         1.076488        -2.167361
 H         4.522236         0.539351        -1.576431
 H         4.255281         1.662545         0.555303
 H         5.058287        -0.985693         0.183721
 H         1.642026        -2.203015        -0.560530
 H         1.289645        -1.651425         1.264919
