19
Iteration:  3354charge 0 multiplicity 1
 C         0.024080         0.216852        -0.209560
 C         1.509927        -0.053225        -0.119797
 C         2.394262         0.272619        -1.413327
 C         3.877876         0.450814        -0.824141
 C         3.563218         0.783155         0.704465
 O         2.187848         0.931087         0.900207
 C         4.008559        -0.610590         0.191250
 O         3.166786        -1.809631         0.067054
 C         1.784500        -1.469059         0.280981
 H        -0.298073         0.481782        -1.294326
 H        -0.561904        -0.580583         0.237250
 H        -0.228119         1.139451         0.437375
 H         2.285435        -0.531363        -2.126083
 H         2.208986         1.334626        -1.858142
 H         4.654356         0.893138        -1.443159
 H         4.147094         1.439552         1.466235
 H         4.901582        -1.064881         0.549814
 H         1.213253        -2.224591        -0.253550
 H         1.477126        -1.541637         1.365086
