19
Iteration:  2153
 C         0.039747         0.292833        -0.234672
 C         1.584493         0.094587        -0.143129
 C         2.563118         0.966296        -0.934272
 C         3.783218         0.765685        -0.188064
 C         3.356547         0.148400         1.202229
 O         1.971771         0.172469         1.283938
 C         3.970787        -0.717667         0.045328
 O         3.285863        -1.594219        -0.772454
 C         1.940705        -1.355664        -0.553262
 H        -0.597094        -0.650819        -0.309029
 H        -0.281122         0.892213         0.671515
 H        -0.241920         1.001093        -1.043117
 H         2.552245         0.681082        -2.029672
 H         2.300320         2.020099        -1.047076
 H         4.685680         1.377805        -0.334098
 H         3.890012         0.249722         2.121662
 H         4.877582        -1.145469         0.271588
 H         1.466051        -1.806338        -1.423014
 H         1.779799        -1.847575         0.474026
