19
Iteration:  1504charge 0 multiplicity 1
 C         0.103993         0.389946        -0.249432
 C         1.568754         0.102405        -0.146152
 C         2.431327         1.262703        -0.573637
 C         3.771882         0.781974         0.058463
 C         3.330975        -0.114485         1.188005
 O         1.948118        -0.181244         1.236264
 C         4.037788        -0.693954         0.021822
 O         3.368681        -1.557817        -0.955191
 C         1.898680        -1.223984        -0.838564
 H        -0.429613         0.705326         0.721839
 H         0.025876         1.187797        -1.067126
 H        -0.301111        -0.469143        -0.819487
 H         2.593913         1.564625        -1.728128
 H         2.194492         2.195922        -0.035473
 H         4.659738         1.485809         0.135202
 H         3.736245        -0.111179         2.240314
 H         5.030485        -1.058588         0.204866
 H         1.552658        -1.461014        -1.795081
 H         1.564321        -1.926552        -0.020556
