19
Iteration:  1994charge 0 multiplicity 1
 C         0.064055         0.294211        -0.164863
 C         1.540212         0.030662        -0.149221
 C         2.435974         1.186791        -0.712837
 C         3.797727         0.820079        -0.144278
 C         3.464932         0.144256         1.143169
 O         2.024634         0.043979         1.182102
 C         3.995268        -0.717700         0.029204
 O         3.243894        -1.762861        -0.566368
 C         1.938095        -1.285734        -0.869773
 H        -0.175814         0.471385        -1.256159
 H        -0.581793        -0.520960         0.098050
 H        -0.048682         1.149758         0.423893
 H         2.413493         1.253999        -1.845681
 H         2.034154         2.163313        -0.328855
 H         4.722881         1.405345        -0.306719
 H         3.839281         0.384916         2.140139
 H         4.993207        -1.049623         0.079249
 H         1.837896        -1.111002        -2.026075
 H         1.252011        -1.972638        -0.532061
