19
Iteration:  2356charge 0 multiplicity 1
 C         0.026234         0.366143        -0.204952
 C         1.503299         0.049525        -0.176525
 C         2.469280         0.945376        -1.020673
 C         3.842756         0.741118        -0.241318
 C         3.388329         0.266636         1.078584
 O         1.999828         0.347943         1.168034
 C         4.065324        -0.733927         0.052104
 O         3.323285        -1.731296        -0.602907
 C         1.884548        -1.493119        -0.406794
 H        -0.517113        -0.332212         0.352264
 H        -0.185678         1.340715         0.213539
 H        -0.387064         0.383186        -1.281935
 H         2.476232         0.674768        -2.029859
 H         2.174546         1.976192        -0.853042
 H         4.564518         1.540387        -0.411758
 H         3.868226         0.457632         2.007777
 H         4.992390        -1.136737         0.345396
 H         1.337926        -2.117670        -1.096367
 H         1.769384        -1.995748         0.610524
