19
Iteration:  2488charge 0 multiplicity 1
 C        -0.008486         0.300132        -0.235295
 C         1.524115         0.037363        -0.106500
 C         2.464631         0.830662        -1.128359
 C         3.871229         0.735748        -0.386113
 C         3.463128         0.390869         1.039437
 O         2.056919         0.375602         1.207344
 C         4.084242        -0.679543         0.108915
 O         3.233029        -1.751118        -0.436561
 C         1.820158        -1.447160        -0.376433
 H        -0.149387         1.362062        -0.216158
 H        -0.325509        -0.122484        -1.209441
 H        -0.540716        -0.189088         0.563219
 H         2.431188         0.409812        -2.129478
 H         2.033841         1.863130        -1.069974
 H         4.712740         1.357701        -0.718363
 H         4.076853         0.464083         1.966234
 H         5.149063        -0.970387         0.478073
 H         1.486370        -1.676043        -1.428637
 H         1.277706        -2.146288         0.320062
