19
Iteration:  4919
 C         0.014829         0.345897        -0.282128
 C         1.508050        -0.042526        -0.083329
 C         2.290021        -0.173542        -1.379891
 C         3.697066         0.105677        -1.069423
 C         3.627573         0.933221         0.195583
 O         2.263721         1.017318         0.550336
 C         4.079934        -0.530820         0.238788
 O         3.216523        -1.672328         0.597033
 C         1.807381        -1.283900         0.815092
 H        -0.051613         1.523119        -0.268117
 H        -0.324426        -0.064540        -1.193878
 H        -0.754097         0.022459         0.528124
 H         2.058590        -1.178263        -1.724619
 H         1.728739         0.476338        -2.110929
 H         4.387357         0.311971        -1.853647
 H         4.295525         1.749431         0.405977
 H         5.115564        -0.868653         0.195202
 H         1.326033        -2.156866         0.417725
 H         1.663484        -1.198889         1.913177
