19
Iteration:  3448
 C         0.007893         0.425983        -0.189429
 C         1.514492         0.019462        -0.175530
 C         2.294651         0.353663        -1.502863
 C         3.711558         0.355490        -0.896891
 C         3.574031         0.747214         0.566118
 O         2.209575         0.760078         0.897738
 C         4.007087        -0.623097         0.188942
 O         3.244155        -1.727679         0.485404
 C         1.900122        -1.589762         0.202106
 H        -0.180637         1.035474         0.704142
 H        -0.123604         1.117752        -1.111772
 H        -0.672575        -0.383085        -0.300078
 H         2.098750        -0.538142        -2.242802
 H         2.024894         1.294360        -1.852414
 H         4.524342         0.746596        -1.488721
 H         4.243404         1.427399         1.193678
 H         5.062082        -0.824875         0.331334
 H         1.645785        -2.197933        -0.792743
 H         1.422561        -2.090811         1.012398
