19
Iteration:  1471charge 0 multiplicity 1
 C         0.032544         0.327682        -0.067353
 C         1.544125         0.038053        -0.209746
 C         2.530225         1.180594        -0.624942
 C         3.786046         0.803881         0.097065
 C         3.365962        -0.040720         1.223613
 O         1.981714        -0.203205         1.174447
 C         4.095521        -0.660271         0.027846
 O         3.242967        -1.583898        -0.670381
 C         1.933528        -1.090021        -1.210977
 H        -0.335709         1.108455         0.714857
 H        -0.340140         0.681697        -1.116330
 H        -0.528363        -0.623196         0.222228
 H         2.675033         1.406296        -1.822889
 H         2.191498         2.119087        -0.144699
 H         4.713748         1.455659         0.186733
 H         3.784853        -0.022123         2.252600
 H         5.030395        -1.131159         0.062062
 H         1.945540        -0.755337        -2.251185
 H         1.229861        -2.014306        -1.125555
