19
Iteration:    89charge 0 multiplicity 1
 C        -0.027739         0.359281        -0.089882
 C         1.551447         0.121001        -0.095240
 C         2.543155         1.349886         0.398783
 C         3.682617         0.529576         0.799607
 C         3.195683        -0.918242         1.098815
 O         1.850715        -0.949576         0.792993
 C         3.992215        -0.650571        -0.089208
 O         3.506408        -0.882193        -1.430009
 C         2.172545        -0.270358        -1.528534
 H        -0.503975         0.162876        -0.986915
 H        -0.336439        -0.375222         0.680300
 H        -0.372263         1.385428         0.199744
 H         2.705820         2.054074        -0.352959
 H         2.097922         1.778479         1.289959
 H         4.553645         0.950263         1.376073
 H         3.370407        -1.566732         1.996543
 H         5.113142        -0.935835        -0.008661
 H         2.227289         0.749459        -1.955741
 H         1.530280        -0.808473        -2.148090
