19
Iteration:  2591
 C         0.053183         0.367994        -0.144927
 C         1.485656         0.044920        -0.166017
 C         2.457426         0.849457        -1.154437
 C         3.800794         0.711662        -0.457674
 C         3.478429         0.481735         0.976058
 O         2.060192         0.368285         1.105474
 C         4.102852        -0.702594         0.065280
 O         3.242203        -1.820221        -0.170995
 C         1.830993        -1.538247        -0.418525
 H        -0.516251        -0.568676         0.181936
 H        -0.155086         1.122838         0.648663
 H        -0.350473         0.712362        -1.191120
 H         2.445453         0.619593        -2.320119
 H         2.106327         1.879932        -1.142626
 H         4.550422         1.482404        -0.732091
 H         3.913338         0.859625         1.923310
 H         5.117463        -0.985132         0.220109
 H         1.655837        -1.864045        -1.397449
 H         1.302909        -2.251703         0.339136
