19
Iteration:  2566
 C         0.129603         0.295777        -0.274316
 C         1.552448         0.031577        -0.114201
 C         2.442835         0.735984        -1.174357
 C         3.798761         0.707131        -0.511457
 C         3.465139         0.433258         1.091735
 O         2.068398         0.349139         1.232333
 C         3.994250        -0.654937         0.172388
 O         3.221057        -1.707930        -0.433429
 C         1.825890        -1.430875        -0.305915
 H        -0.354656        -0.089862         0.676304
 H         0.100246         1.441488        -0.124658
 H        -0.317262         0.001727        -1.155798
 H         2.436647         0.181668        -2.217945
 H         1.997920         1.692035        -1.354148
 H         4.585393         1.340337        -0.903448
 H         4.024550         0.815066         1.935302
 H         5.038459        -0.902253         0.387125
 H         1.411145        -1.702043        -1.240939
 H         1.357787        -2.093492         0.486004
