19
Iteration:  4966
 C         0.046166         0.304074        -0.158358
 C         1.485269        -0.052806        -0.111564
 C         2.297017        -0.136758        -1.518324
 C         3.750992         0.178039        -1.023204
 C         3.634133         0.888951         0.242391
 O         2.216488         1.015498         0.514360
 C         4.071269        -0.595764         0.233659
 O         3.159033        -1.680215         0.564678
 C         1.836111        -1.221080         0.754223
 H        -0.260944         0.892541        -0.979342
 H        -0.573481        -0.693595        -0.066167
 H        -0.323945         0.889738         0.767388
 H         2.177891        -1.118632        -1.941182
 H         1.939608         0.536188        -2.273679
 H         4.656047         0.128966        -1.693500
 H         4.134273         1.767958         0.678443
 H         5.077389        -0.822535         0.668911
 H         1.306649        -2.098793         0.658627
 H         1.828828        -0.838550         1.763242
