19
Iteration:  1130
 C         0.044038         0.435981        -0.245302
 C         1.549601        -0.003508        -0.121963
 C         2.535222         1.216678        -0.482194
 C         3.826299         0.766939         0.333765
 C         3.283114        -0.359006         1.265915
 O         1.874405        -0.305509         1.277289
 C         4.048839        -0.704498        -0.041223
 O         3.368093        -1.136475        -1.200059
 C         1.961248        -1.174904        -0.970808
 H        -0.106157         0.793455        -1.230050
 H        -0.634641        -0.446858        -0.061549
 H        -0.114919         1.297438         0.403300
 H         2.694674         1.024675        -1.568143
 H         2.176094         2.282909        -0.141744
 H         4.673853         1.385910         0.665965
 H         3.753772        -0.726750         2.133057
 H         4.985662        -1.144279        -0.045763
 H         1.416763        -1.084862        -1.975611
 H         1.710570        -2.088579        -0.416334
