19
Iteration:   679
 C         0.055698         0.217932        -0.173707
 C         1.592915         0.190861        -0.147961
 C         2.501705         1.512229         0.056639
 C         3.707160         0.680343         0.339607
 C         3.261867        -0.498600         1.191314
 O         1.860674        -0.594684         1.116316
 C         4.041339        -0.729622        -0.085498
 O         3.302735        -1.387405        -1.073563
 C         2.138613        -0.608229        -1.447878
 H        -0.514764         0.938414        -0.858096
 H        -0.224176        -0.749406        -0.419254
 H        -0.206610         0.441108         0.941519
 H         2.589280         2.116751        -0.805348
 H         2.248308         2.154138         0.896986
 H         4.637491         1.155748         0.591632
 H         3.686961        -0.867023         2.185397
 H         5.072908        -1.111357        -0.037031
 H         2.510517         0.193503        -2.212166
 H         1.404208        -1.403057        -1.905637
