19
Iteration:  1644
 C        -0.017570         0.278357        -0.262258
 C         1.531225         0.092535        -0.190330
 C         2.436693         1.313303        -0.576171
 C         3.792420         0.793033        -0.017483
 C         3.528006         0.013683         1.169854
 O         2.073893        -0.183901         1.206110
 C         4.118795        -0.722967        -0.040034
 O         3.108368        -1.743740        -0.480891
 C         1.973506        -1.081697        -1.086165
 H        -0.514465        -0.674007        -0.270192
 H        -0.518552         0.860494         0.561508
 H        -0.346724         0.807371        -1.172288
 H         2.472855         1.698394        -1.647403
 H         2.145556         2.075595         0.113642
 H         4.471379         1.676349        -0.077327
 H         3.873192         0.211816         2.193278
 H         5.145862        -1.103006        -0.103028
 H         2.239419        -0.748703        -2.182734
 H         1.176356        -1.862335        -1.110919
