19
Iteration:  1206charge 0 multiplicity 1
 C         0.089204         0.369995        -0.175722
 C         1.602109         0.118007        -0.152291
 C         2.484452         1.311787        -0.464860
 C         3.798704         0.789670         0.197697
 C         3.331700        -0.217139         1.266467
 O         1.873161        -0.360562         1.175365
 C         4.059630        -0.718603         0.012853
 O         3.341679        -1.450197        -0.980854
 C         1.923633        -1.066400        -1.085101
 H        -0.050636         0.817337         0.764040
 H        -0.301231         0.986981        -1.019757
 H        -0.380825        -0.618860        -0.049384
 H         2.696363         1.363265        -1.561580
 H         1.963902         2.219956         0.044549
 H         4.760999         1.357454         0.241719
 H         3.687028        -0.253396         2.264725
 H         5.063829        -1.050252         0.007830
 H         1.806633        -0.540413        -2.125307
 H         1.259240        -2.016568        -1.007247
