19
Iteration:  4117charge 0 multiplicity 1
 C         0.001103         0.117573        -0.197443
 C         1.580834         0.094436        -0.118573
 C         2.274928        -0.107851        -1.454378
 C         3.736856         0.143752        -1.022247
 C         3.604762         0.825531         0.378002
 O         2.270832         1.143869         0.692347
 C         4.040510        -0.652554         0.162596
 O         3.181255        -1.700650         0.462888
 C         1.824424        -1.145364         0.651571
 H        -0.439092        -0.628520         0.461437
 H        -0.454914         1.121409         0.196896
 H        -0.478538         0.029552        -1.297173
 H         2.113548        -1.198776        -1.773496
 H         1.970929         0.465323        -2.280927
 H         4.562223         0.360178        -1.667266
 H         4.266191         1.704341         0.595749
 H         5.069083        -0.957139         0.399886
 H         1.100794        -1.844416         0.291890
 H         1.722365        -1.059853         1.676195
