19
Iteration:   337
 C         0.067591         0.388705        -0.101334
 C         1.539635         0.142357        -0.110464
 C         2.584802         1.295429         0.080308
 C         3.716988         0.556769         0.688746
 C         3.176871        -0.691547         1.142406
 O         1.762703        -0.810572         1.023501
 C         3.995724        -0.687882        -0.121474
 O         3.551534        -0.787582        -1.404579
 C         2.088510        -0.672882        -1.353382
 H        -0.328640         0.369565         0.975929
 H        -0.102786         1.474950        -0.449428
 H        -0.576337        -0.269679        -0.661606
 H         2.970273         1.778098        -0.922838
 H         2.088099         2.069606         0.742099
 H         4.458511         1.067380         1.235816
 H         3.529250        -1.257574         1.942742
 H         4.930305        -1.259289        -0.054465
 H         1.818800        -0.385010        -2.361979
 H         1.561753        -1.642408        -1.206822
