19
Iteration:  3334
 C         0.046466         0.289420        -0.220897
 C         1.542834         0.053873        -0.152938
 C         2.421374         0.215972        -1.378240
 C         3.761049         0.517294        -0.789882
 C         3.541517         0.629329         0.670604
 O         2.141547         0.780073         0.935921
 C         4.075677        -0.624121         0.194332
 O         3.183585        -1.728978         0.039290
 C         1.804438        -1.368848         0.342654
 H        -0.384391        -0.170157        -1.184563
 H        -0.563904        -0.284449         0.486303
 H        -0.356025         1.407918        -0.313774
 H         2.510601        -0.702689        -1.819399
 H         2.068879         1.018016        -2.131347
 H         4.578396         1.060640        -1.294793
 H         4.186721         1.401605         1.229009
 H         5.022480        -1.108495         0.286144
 H         1.234588        -2.154221        -0.295936
 H         1.602100        -1.463790         1.328188
