19
Iteration:  3926
 C         0.023986         0.467169        -0.163458
 C         1.484941        -0.020916        -0.078630
 C         2.338632        -0.205296        -1.498556
 C         3.712365         0.282033        -0.987179
 C         3.582504         0.844644         0.411497
 O         2.147849         1.065086         0.677068
 C         4.098680        -0.581242         0.192725
 O         3.267859        -1.723143         0.392581
 C         1.814620        -1.427898         0.633135
 H        -0.013896         1.277113        -0.962572
 H        -0.621461        -0.375523        -0.552103
 H        -0.405209         0.695402         0.796322
 H         2.317475        -1.158128        -1.917968
 H         2.089087         0.590823        -2.227461
 H         4.491059         0.465300        -1.703021
 H         4.282667         1.591682         0.933628
 H         5.135295        -0.895863         0.382499
 H         1.291930        -2.221257         0.214735
 H         1.534744        -1.358552         1.686802
