19
Iteration:   749
 C         0.160692         0.552687        -0.145733
 C         1.524288         0.047831        -0.106527
 C         2.493713         1.231890        -0.206728
 C         3.729994         0.719977         0.560687
 C         3.206264        -0.554934         1.197535
 O         1.807155        -0.617565         1.143930
 C         4.053901        -0.684426        -0.048279
 O         3.450743        -0.932532        -1.402046
 C         2.018418        -1.053667        -1.138774
 H        -0.069496         1.159613         0.718590
 H         0.154044         1.196985        -1.140638
 H        -0.413816        -0.337722        -0.200618
 H         2.762688         1.521195        -1.272819
 H         2.205695         2.215075         0.315323
 H         4.339244         1.564419         0.903346
 H         3.592319        -0.934938         2.089535
 H         5.000384        -1.257556         0.066455
 H         1.538611        -0.960374        -2.181597
 H         1.929522        -2.130791        -0.667887
