19
Iteration:  3508
 C         0.040686         0.199884        -0.215041
 C         1.528746         0.042304        -0.101899
 C         2.447264         0.175024        -1.419182
 C         3.802431         0.438582        -0.898738
 C         3.599353         0.780006         0.565054
 O         2.199445         0.917499         0.887278
 C         4.035875        -0.635631         0.148299
 O         3.155109        -1.765509         0.217648
 C         1.725750        -1.363982         0.402796
 H        -0.447624        -0.691606         0.192674
 H        -0.357070         1.028669         0.293679
 H        -0.322010         0.234739        -1.289322
 H         2.311935        -0.745240        -1.937101
 H         1.970470         0.925155        -2.166731
 H         4.534867         0.761031        -1.648875
 H         4.277099         1.312931         1.148591
 H         5.087533        -0.937802         0.435986
 H         1.181489        -2.027467        -0.197768
 H         1.353609        -1.543225         1.596339
