19
Iteration:   131
 C         0.028969         0.471337        -0.192496
 C         1.537136         0.058696        -0.124346
 C         2.531766         1.282928         0.379186
 C         3.758028         0.508323         0.852292
 C         3.182084        -0.938999         1.125685
 O         1.811763        -0.907247         0.864620
 C         4.068818        -0.624875        -0.128616
 O         3.513021        -0.606565        -1.450584
 C         2.020325        -0.583206        -1.417848
 H         0.012618         1.619983        -0.450168
 H        -0.584330        -0.102983        -0.954558
 H        -0.419403         0.342774         0.822151
 H         2.911433         1.920617        -0.425139
 H         2.144077         1.884723         1.211345
 H         4.573288         1.088816         1.367310
 H         3.515662        -1.740663         1.836828
 H         5.121594        -1.060529        -0.084367
 H         1.759509         0.104103        -2.292849
 H         1.659738        -1.582173        -1.744901
