19
Iteration:  2515
 C         0.130871         0.349017        -0.235173
 C         1.573079         0.059162        -0.216938
 C         2.465620         0.857466        -1.114530
 C         3.809768         0.681276        -0.363295
 C         3.378836         0.350818         1.064299
 O         1.977853         0.430820         1.158247
 C         4.018829        -0.716112         0.101556
 O         3.226804        -1.701026        -0.569078
 C         1.910102        -1.553472        -0.184576
 H        -0.099558         1.082530         0.602847
 H        -0.194927         0.728988        -1.218317
 H        -0.291291        -0.691546        -0.088853
 H         2.475106         0.528226        -2.189433
 H         2.047784         1.831319        -0.922815
 H         4.695521         1.236829        -0.685869
 H         4.071346         0.620296         1.852833
 H         4.999079        -0.885262         0.365140
 H         1.321296        -2.251197        -0.790690
 H         1.670297        -1.852063         0.896623
