19
Iteration:  1518
 C         0.038545         0.440534        -0.400575
 C         1.543504         0.023050        -0.117360
 C         2.514040         1.175605        -0.511212
 C         3.799098         0.770210         0.062994
 C         3.373996        -0.112172         1.225187
 O         1.896529        -0.080525         1.311296
 C         4.067932        -0.726223        -0.052334
 O         3.343154        -1.417202        -1.020569
 C         1.958392        -1.363866        -0.750293
 H        -0.492253         0.633573         0.658420
 H        -0.054570         1.416981        -0.864070
 H        -0.615915        -0.304642        -0.875270
 H         2.460651         1.303900        -1.598181
 H         2.078737         2.134295        -0.060138
 H         4.557566         1.505892         0.154241
 H         3.884263        -0.108636         2.182436
 H         5.157647        -1.128077        -0.029819
 H         1.475972        -1.370733        -1.764726
 H         1.586465        -2.255693        -0.070952
