19
Iteration:  4717
 C         0.072539         0.203361        -0.153417
 C         1.584665        -0.049240        -0.194855
 C         2.264326        -0.202630        -1.533748
 C         3.737801         0.112616        -1.163168
 C         3.576181         0.878426         0.202136
 O         2.239605         1.061550         0.526884
 C         4.034815        -0.572852         0.332682
 O         3.148035        -1.626600         0.601393
 C         1.852545        -1.127595         0.874690
 H        -0.352091        -0.448756         0.500388
 H        -0.076730         1.290734         0.154795
 H        -0.456299         0.039280        -1.100035
 H         2.037270        -1.293884        -1.811113
 H         1.910835         0.480304        -2.296913
 H         4.586849         0.233007        -1.846261
 H         4.190579         1.727089         0.509838
 H         5.015539        -0.982820         0.587294
 H         1.261206        -1.966353         0.905901
 H         1.629965        -0.556802         1.846741
