19
Iteration:  1681
 C         0.095329         0.328852        -0.129847
 C         1.575528         0.068976        -0.110832
 C         2.509924         1.254187        -0.729468
 C         3.758250         0.811154        -0.074933
 C         3.311231        -0.003134         1.218652
 O         1.924874        -0.103510         1.220023
 C         4.051451        -0.736232         0.072698
 O         3.307617        -1.670099        -0.796611
 C         1.963390        -1.189817        -0.930572
 H        -0.365601        -0.397131        -0.877862
 H        -0.223810         0.136234         0.860245
 H        -0.048630         1.353633        -0.457127
 H         2.569855         1.542898        -1.805756
 H         2.246277         2.248179        -0.230018
 H         4.620277         1.397688         0.065065
 H         3.772357         0.112388         2.196804
 H         5.040280        -1.148704         0.294855
 H         1.581210        -0.898940        -2.080088
 H         1.322782        -2.034913        -0.663611
