19
Iteration:  2229charge 0 multiplicity 1
 C         0.020107         0.296717        -0.171701
 C         1.582466         0.030482        -0.187010
 C         2.408677         1.065073        -0.895798
 C         3.789512         0.726900        -0.352448
 C         3.444816         0.265396         1.046773
 O         2.091600         0.039153         1.215916
 C         4.091048        -0.707421         0.056517
 O         3.153107        -1.745973        -0.201094
 C         1.939677        -1.229462        -0.820914
 H        -0.396099         1.009635        -0.953962
 H        -0.588551        -0.639630        -0.323126
 H        -0.278026         0.812000         0.740895
 H         2.323596         0.896015        -2.104372
 H         2.151216         2.133552        -0.725995
 H         4.603613         1.434775        -0.429932
 H         3.969208         0.755936         1.806071
 H         5.087874        -1.058435         0.110633
 H         2.171917        -1.147408        -1.933699
 H         1.142894        -1.916917        -0.642053
