19
Iteration:   622charge 0 multiplicity 1
 C         0.019306         0.445120        -0.191997
 C         1.585807         0.118016        -0.134258
 C         2.458438         1.362009         0.028728
 C         3.759711         0.786086         0.447814
 C         3.284901        -0.606485         1.172345
 O         1.889236        -0.745769         1.026107
 C         4.079511        -0.635468        -0.067950
 O         3.372015        -1.252019        -1.147287
 C         2.057122        -0.710837        -1.302823
 H        -0.405824        -0.253665        -0.911199
 H        -0.308590         0.303635         0.839213
 H        -0.225862         1.505941        -0.461524
 H         2.465899         1.912797        -0.929033
 H         2.100630         1.957457         0.801805
 H         4.623105         1.396030         0.749570
 H         3.586790        -0.908557         2.119807
 H         5.137673        -1.059390        -0.052306
 H         2.011006        -0.129294        -2.332289
 H         1.315633        -1.529793        -1.457568
