19
Iteration:   650
 C         0.023346         0.302697        -0.238315
 C         1.614265         0.085138        -0.120046
 C         2.456350         1.368609         0.060987
 C         3.704645         0.731957         0.443458
 C         3.347107        -0.443893         1.233647
 O         1.983996        -0.647712         1.025192
 C         4.067581        -0.740068        -0.066878
 O         3.187694        -1.364063        -1.092128
 C         2.092418        -0.529626        -1.408073
 H        -0.247522         0.044932        -1.272698
 H        -0.418141        -0.588540         0.400230
 H        -0.142945         1.256692         0.183908
 H         2.554175         1.953516        -0.883568
 H         2.090299         2.034104         0.966163
 H         4.652696         1.284953         0.519405
 H         3.603336        -0.711831         2.311204
 H         5.026054        -1.131030        -0.177737
 H         2.491149         0.262841        -1.994546
 H         1.387149        -1.183575        -1.985938
