19
Iteration:  2629charge 0 multiplicity 1
 C         0.116496         0.285418        -0.188251
 C         1.581112         0.060496        -0.142825
 C         2.368063         0.934833        -1.144365
 C         3.776030         0.609373        -0.613228
 C         3.516487         0.485971         0.912264
 O         2.073276         0.315660         1.142393
 C         4.053736        -0.640823         0.125017
 O         3.164252        -1.811635        -0.006592
 C         1.873178        -1.482002        -0.454623
 H        -0.299616        -0.485028        -0.806468
 H        -0.345399         0.185528         0.816647
 H        -0.222207         1.256458        -0.500295
 H         2.207296         0.704735        -2.122207
 H         2.256760         2.036286        -0.851431
 H         4.544603         1.258451        -0.994936
 H         4.071430         0.946225         1.703358
 H         5.077195        -1.014342         0.254273
 H         1.772242        -1.522366        -1.644269
 H         1.134436        -2.116546        -0.068620
