19
Iteration:  3244charge 0 multiplicity 1
 C         0.062528         0.222653        -0.121269
 C         1.527736        -0.002744        -0.200305
 C         2.337050         0.465373        -1.455898
 C         3.751791         0.493311        -0.791067
 C         3.634231         0.729785         0.668056
 O         2.220605         0.707321         0.954295
 C         4.074142        -0.668305         0.184106
 O         3.114620        -1.697232         0.400066
 C         1.765980        -1.512851        -0.047924
 H        -0.277344        -0.068816         0.962919
 H        -0.330210         1.261772        -0.203782
 H        -0.221325        -0.438018        -0.965597
 H         2.239119        -0.220878        -2.265969
 H         2.204368         1.494821        -1.908593
 H         4.531841         1.030784        -1.312095
 H         4.249644         1.343560         1.255326
 H         5.132962        -0.989483         0.292478
 H         1.589245        -1.981582        -1.126795
 H         1.096351        -1.947313         0.666665
