19
Iteration:  1184
 C         0.012071         0.396196        -0.251564
 C         1.588819         0.131499        -0.135574
 C         2.560717         1.264972        -0.356041
 C         3.780718         0.786783         0.253893
 C         3.301050        -0.321543         1.174996
 O         1.913583        -0.262741         1.221886
 C         4.038039        -0.704251        -0.028795
 O         3.377061        -1.324535        -1.106587
 C         1.938668        -1.215544        -0.993306
 H        -0.203306         1.388004         0.016296
 H        -0.132892         0.355998        -1.357437
 H        -0.623288        -0.337358         0.287027
 H         2.589555         1.528955        -1.465458
 H         2.248860         2.187489         0.368258
 H         4.554865         1.564635         0.409030
 H         3.812824        -0.456621         2.070571
 H         4.947718        -1.173365         0.074599
 H         1.420501        -1.308289        -2.049704
 H         1.513555        -2.061824        -0.305630
