19
Iteration:  3285
 C         0.060942         0.341981        -0.206940
 C         1.552261        -0.027367        -0.163443
 C         2.339692         0.462903        -1.384262
 C         3.759346         0.410201        -0.817147
 C         3.534644         0.716939         0.652124
 O         2.147467         0.796072         0.874424
 C         4.100183        -0.614875         0.210728
 O         3.243331        -1.810609         0.250089
 C         1.798706        -1.590584         0.130227
 H        -0.710788        -0.436996        -0.000835
 H        -0.202530         1.123173         0.585162
 H        -0.266846         0.773077        -1.099990
 H         2.105119        -0.189394        -2.348285
 H         2.001580         1.471748        -1.448930
 H         4.484029         1.080603        -1.273905
 H         4.023919         1.466634         1.172656
 H         5.122589        -0.932712         0.539695
 H         1.429215        -2.303147        -0.500132
 H         1.437799        -1.843313         1.206128
