19
Iteration:  2479charge 0 multiplicity 1
 C         0.006095         0.322647        -0.221693
 C         1.501167         0.067554        -0.172087
 C         2.453742         0.782921        -1.067514
 C         3.840329         0.761018        -0.416718
 C         3.544832         0.291908         1.030584
 O         2.057374         0.362153         1.244955
 C         4.062210        -0.629542         0.079935
 O         3.245819        -1.719631        -0.321524
 C         1.806123        -1.437290        -0.479652
 H        -0.404591         1.358904        -0.478260
 H        -0.403460        -0.404409        -1.023863
 H        -0.431703         0.058043         0.709928
 H         2.470596         0.413184        -2.162705
 H         2.126005         1.760932        -1.182209
 H         4.679690         1.380539        -0.723532
 H         3.955610         0.591582         1.995528
 H         5.058203        -1.121141         0.285111
 H         1.673577        -1.590221        -1.470225
 H         1.271831        -2.275710         0.122635
