19
Iteration:   474charge 0 multiplicity 1
 C         0.019503         0.360879        -0.124531
 C         1.518873         0.096153        -0.110259
 C         2.442670         1.386135         0.045274
 C         3.729505         0.704535         0.588228
 C         3.311318        -0.593908         1.156256
 O         1.924233        -0.802749         0.909459
 C         4.095545        -0.678008        -0.112460
 O         3.275394        -1.289780        -1.071513
 C         2.151463        -0.438571        -1.459291
 H        -0.075031         1.466760         0.004458
 H        -0.486167         0.051524        -1.045354
 H        -0.407522        -0.159868         0.823376
 H         2.619879         1.995114        -0.826418
 H         2.080139         2.138029         0.870070
 H         4.511097         1.228379         1.106989
 H         3.619060        -1.043860         2.037087
 H         5.197877        -0.993758        -0.071084
 H         2.471075         0.222733        -2.299387
 H         1.461312        -1.144720        -1.958142
