19
Iteration:  1531charge 0 multiplicity 1
 C        -0.008358         0.463033        -0.415943
 C         1.546519        -0.049747        -0.077512
 C         2.492700         1.028081        -0.609223
 C         3.926764         0.793172         0.141398
 C         3.355482        -0.130906         1.226164
 O         1.941609        -0.032164         1.361986
 C         4.027750        -0.659894        -0.031071
 O         3.318223        -1.285958        -1.085189
 C         1.897477        -1.366428        -0.747690
 H        -0.441848         0.441074         0.638087
 H        -0.033435         1.387763        -0.952796
 H        -0.487411        -0.306136        -1.048394
 H         2.619043         1.018602        -1.617060
 H         2.138588         2.001495        -0.171073
 H         4.792666         1.399965         0.216818
 H         3.762244        -0.326435         2.169661
 H         5.075990        -1.118752         0.165424
 H         1.270413        -1.685518        -1.743641
 H         1.703751        -2.289082        -0.058053
