19
Iteration:   550
 C        -0.048307         0.396994        -0.272347
 C         1.524083         0.164604        -0.187160
 C         2.620779         1.256931        -0.058389
 C         3.793002         0.585810         0.654771
 C         3.240182        -0.708454         1.204878
 O         1.823955        -0.606550         1.205851
 C         4.087300        -0.715251        -0.140195
 O         3.423354        -0.775603        -1.373136
 C         1.999422        -0.873216        -1.194443
 H        -0.386286        -0.011727         0.681377
 H        -0.055286         1.441939        -0.428733
 H        -0.591978        -0.228813        -1.060715
 H         3.050775         1.434150        -1.043916
 H         2.263175         2.274723         0.442261
 H         4.415733         1.297212         1.143300
 H         3.752825        -1.177147         2.047168
 H         5.082848        -1.225899        -0.132640
 H         1.592495        -0.689063        -2.128140
 H         1.735125        -1.934770        -1.080085
