19
Iteration:  2186charge 0 multiplicity 1
 C         0.038026         0.334078        -0.199275
 C         1.514750         0.037153        -0.225070
 C         2.463690         1.046382        -0.829410
 C         3.791760         0.807944        -0.244542
 C         3.468926         0.244300         1.086565
 O         2.020405         0.165501         1.196194
 C         4.071994        -0.705597         0.034531
 O         3.240779        -1.760155        -0.447308
 C         1.905203        -1.403336        -0.724759
 H        -0.608971        -0.160910        -1.007467
 H        -0.316981         0.041836         0.829893
 H        -0.045360         1.398555        -0.416920
 H         2.426213         1.158839        -1.971040
 H         2.159034         1.959219        -0.282168
 H         4.628474         1.489715        -0.228458
 H         3.920669         0.564735         1.974598
 H         5.027396        -1.093076         0.194708
 H         1.636802        -1.605192        -1.773586
 H         1.360425        -2.220838        -0.206593
