19
Iteration:  4110charge 0 multiplicity 1
 C        -0.055867         0.112997        -0.249075
 C         1.525204         0.089725        -0.088538
 C         2.262423        -0.082810        -1.411488
 C         3.727096         0.132037        -1.080235
 C         3.652258         0.853037         0.372579
 O         2.273065         1.161451         0.692189
 C         4.086290        -0.683352         0.153167
 O         3.157895        -1.693804         0.524410
 C         1.885534        -1.200766         0.606571
 H        -0.634082        -0.560499         0.436366
 H        -0.276923         1.146148         0.176851
 H        -0.376333         0.079092        -1.236358
 H         2.074018        -1.120073        -1.693225
 H         1.996772         0.642338        -2.252253
 H         4.541340         0.410267        -1.725853
 H         4.261251         1.725870         0.774650
 H         5.074034        -0.994779         0.325135
 H         1.232618        -2.105873         0.269335
 H         1.642659        -0.966853         1.704935
