19
Iteration:   115
 C         0.114860         0.433092        -0.103069
 C         1.578285         0.122013        -0.153294
 C         2.461969         1.212485         0.322371
 C         3.728256         0.493564         0.741424
 C         3.188645        -0.893481         1.089262
 O         1.763588        -0.941141         0.912529
 C         4.025928        -0.700858        -0.100484
 O         3.515328        -0.658664        -1.379583
 C         2.142312        -0.390176        -1.516456
 H        -0.170879         1.224108        -0.803483
 H        -0.435565        -0.477844        -0.272822
 H        -0.132401         0.819021         0.902143
 H         2.463531         2.077695        -0.420412
 H         1.926577         1.532142         1.244016
 H         4.453437         0.926467         1.390783
 H         3.474099        -1.383851         1.984564
 H         5.014383        -1.096332        -0.101445
 H         1.957870         0.320480        -2.298889
 H         1.523141        -1.322875        -1.675044
