19
Iteration:  1463
 C         0.025682         0.325712        -0.078282
 C         1.561560         0.078837        -0.168438
 C         2.504133         1.172982        -0.637933
 C         3.782448         0.792433         0.068719
 C         3.366029        -0.019664         1.251964
 O         2.004225        -0.227887         1.156603
 C         4.082181        -0.712540         0.036123
 O         3.240849        -1.602825        -0.643333
 C         1.966978        -1.041385        -1.263427
 H        -0.235158         1.295670         0.569970
 H        -0.471827         0.404063        -1.039562
 H        -0.445598        -0.495675         0.461473
 H         2.368150         1.143287        -1.685875
 H         2.051307         2.093832        -0.179099
 H         4.650192         1.474845         0.180702
 H         3.816918         0.026587         2.288672
 H         5.142913        -0.998462         0.226941
 H         1.936467        -0.547939        -2.278885
 H         1.217015        -1.921924        -1.393487
