19
Iteration:  2155charge 0 multiplicity 1
 C         0.043094         0.297677        -0.225021
 C         1.572253         0.097318        -0.151359
 C         2.548619         0.975479        -0.935430
 C         3.795534         0.768501        -0.212379
 C         3.358758         0.143029         1.202440
 O         1.976402         0.171537         1.270163
 C         3.965831        -0.705384         0.065547
 O         3.296465        -1.614459        -0.763969
 C         1.929317        -1.351890        -0.562553
 H        -0.627523        -0.640141        -0.377414
 H        -0.288697         0.824209         0.706820
 H        -0.175578         0.991340        -0.990964
 H         2.537162         0.752625        -1.916641
 H         2.268417         2.054762        -0.987239
 H         4.724078         1.299831        -0.334097
 H         3.861917         0.266927         2.113210
 H         4.934781        -1.115368         0.321287
 H         1.474507        -1.770473        -1.434535
 H         1.781073        -1.916394         0.490209
