19
Iteration:   204charge 0 multiplicity 1
 C         0.024567         0.402803        -0.134480
 C         1.582232         0.133302        -0.118267
 C         2.526614         1.319712         0.237458
 C         3.710406         0.524033         0.787152
 C         3.183662        -0.874274         1.128606
 O         1.771332        -0.837342         0.936168
 C         4.096701        -0.712249        -0.102101
 O         3.530116        -0.721579        -1.433705
 C         2.049918        -0.524779        -1.446846
 H        -0.264395        -0.546749         0.445401
 H        -0.230732         1.278924         0.478860
 H        -0.480326         0.491384        -1.039934
 H         2.725960         1.985812        -0.706927
 H         2.122399         1.856988         1.127740
 H         4.580371         0.963560         1.294926
 H         3.562736        -1.518515         1.968835
 H         5.082665        -1.134022        -0.005827
 H         1.882981         0.151570        -2.287006
 H         1.523183        -1.462488        -1.697974
