19
Iteration:  2904charge 0 multiplicity 1
 C         0.064303         0.278724        -0.202965
 C         1.554268        -0.020736        -0.090623
 C         2.455618         0.472567        -1.248278
 C         3.806515         0.624051        -0.572699
 C         3.546780         0.595573         0.898751
 O         2.116355         0.646079         1.077238
 C         4.026109        -0.639690         0.183644
 O         3.181334        -1.672418        -0.274150
 C         1.772944        -1.523485        -0.090031
 H        -0.164578         0.769207        -1.157246
 H        -0.439410        -0.747035        -0.354776
 H        -0.320888         0.801896         0.611314
 H         2.576816        -0.258955        -1.969377
 H         2.114515         1.512469        -1.710942
 H         4.604344         1.153770        -1.109418
 H         3.956792         1.120215         1.713192
 H         5.046953        -1.075199         0.312489
 H         1.225000        -1.986368        -0.862043
 H         1.340121        -1.939285         1.020625
