19
Iteration:  3524charge 0 multiplicity 1
 C        -0.023067         0.320862        -0.308835
 C         1.522093         0.040447        -0.088651
 C         2.291317         0.100658        -1.362928
 C         3.764919         0.411147        -0.848739
 C         3.555485         0.676602         0.582595
 O         2.190847         0.950876         0.830981
 C         4.116312        -0.670807         0.135957
 O         3.196644        -1.743775         0.194273
 C         1.893441        -1.400498         0.435166
 H        -0.656832        -0.583440        -0.134687
 H        -0.352320         1.163233         0.469888
 H        -0.227087         0.689284        -1.291889
 H         2.438272        -0.853244        -1.971548
 H         2.027376         0.922317        -1.949969
 H         4.433388         1.124604        -1.317388
 H         4.114361         1.503690         1.182885
 H         5.073611        -1.022378         0.406839
 H         1.221469        -2.272803         0.008463
 H         1.705521        -1.348834         1.535551
