19
Iteration:  3419charge 0 multiplicity 1
 C         0.082388         0.302203        -0.171194
 C         1.567069         0.031468        -0.136421
 C         2.342079         0.269649        -1.422565
 C         3.788950         0.438626        -0.900396
 C         3.563463         0.829999         0.544656
 O         2.228170         0.652973         0.916778
 C         4.073560        -0.629999         0.103251
 O         3.096174        -1.666487         0.476949
 C         1.780852        -1.511896         0.144880
 H         0.032504         1.395891         0.088675
 H        -0.134876         0.237446        -1.178327
 H        -0.614849        -0.385177         0.335173
 H         2.175748        -0.484365        -2.202177
 H         1.997117         1.293715        -1.832910
 H         4.587001         1.027113        -1.379469
 H         4.155539         1.579325         1.174464
 H         5.074044        -0.881642         0.310279
 H         1.417759        -1.962087        -0.729140
 H         1.162300        -1.994387         1.058830
