19
Iteration:  4622charge 0 multiplicity 1
 C         0.014409         0.343020        -0.028443
 C         1.530882        -0.028199        -0.201270
 C         2.256766        -0.139003        -1.600320
 C         3.732180         0.066470        -1.130207
 C         3.637886         0.832565         0.181244
 O         2.266466         0.997942         0.513951
 C         4.045889        -0.564178         0.231369
 O         3.187549        -1.424773         0.980870
 C         1.830347        -1.387559         0.559741
 H        -0.332584         0.975587         0.862750
 H        -0.319954         0.577690        -1.077482
 H        -0.515191        -0.564644         0.101586
 H         2.034484        -1.080356        -2.082113
 H         1.918600         0.732902        -2.155480
 H         4.553476         0.314741        -1.832469
 H         4.279895         1.651207         0.428102
 H         5.065791        -0.949708         0.170427
 H         1.587166        -2.343167        -0.026869
 H         1.309762        -1.568817         1.440796
