19
Iteration:  1878
 C         0.007122         0.283555        -0.288608
 C         1.521962         0.021857        -0.100182
 C         2.512888         1.153592        -0.683244
 C         3.848033         0.833738        -0.062265
 C         3.463698         0.028127         1.193274
 O         2.037046        -0.040517         1.214750
 C         4.074937        -0.643288        -0.057626
 O         3.199474        -1.616455        -0.624043
 C         1.847193        -1.262367        -0.830488
 H        -0.576023        -0.020887         0.593238
 H        -0.071424         1.398620        -0.401775
 H        -0.232176        -0.149545        -1.328929
 H         2.586348         1.115098        -1.830859
 H         2.180942         2.166223        -0.309848
 H         4.677169         1.544364        -0.196128
 H         3.782131        -0.046021         2.196107
 H         5.102448        -0.946268        -0.106780
 H         1.668668        -1.139825        -1.866339
 H         1.205105        -2.046558        -0.375836
