19
Iteration:  4151charge 0 multiplicity 1
 C         0.006060         0.372480        -0.118849
 C         1.492898        -0.135219        -0.136348
 C         2.319069        -0.067770        -1.453425
 C         3.847415         0.235791        -0.969627
 C         3.542174         0.852620         0.355125
 O         2.159914         1.060021         0.495361
 C         4.039791        -0.603009         0.182765
 O         3.248682        -1.751423         0.454809
 C         1.839584        -1.324129         0.749603
 H        -0.489672         0.132481         0.840550
 H         0.226866         1.546931        -0.111116
 H        -0.698573         0.071589        -0.989320
 H         2.266751        -1.061384        -1.998635
 H         1.787294         0.718639        -1.955920
 H         4.557151         0.430387        -1.719125
 H         4.267439         1.689447         0.656164
 H         5.027418        -0.799910         0.490758
 H         1.152047        -2.115554         0.374845
 H         1.745325        -1.141913         1.771037
