19
Iteration:  3717
 C         0.063530         0.282710        -0.203251
 C         1.551406         0.070997        -0.205353
 C         2.299586         0.174563        -1.485577
 C         3.724117         0.336704        -0.878930
 C         3.488820         0.695191         0.508476
 O         2.151702         0.983494         0.698262
 C         4.044931        -0.711128         0.169752
 O         3.222351        -1.807689         0.301728
 C         1.935516        -1.326002         0.655186
 H        -0.055612         1.120013         0.419109
 H        -0.313942         0.545686        -1.253768
 H        -0.523902        -0.533258         0.103665
 H         2.200263        -0.683197        -2.061984
 H         2.006182         1.052798        -2.159339
 H         4.496444         0.656614        -1.588588
 H         4.176785         1.329227         1.133371
 H         5.061291        -0.804388         0.534614
 H         1.292562        -2.335316         0.365395
 H         1.801048        -1.060703         1.659149
