19
Iteration:  3992charge 0 multiplicity 1
 C         0.018191         0.215232        -0.138481
 C         1.526477         0.049460        -0.168773
 C         2.287460         0.198279        -1.561028
 C         3.726220         0.164084        -1.021393
 C         3.581318         0.718520         0.287331
 O         2.194364         1.009708         0.583235
 C         4.069513        -0.698287         0.189986
 O         3.272523        -1.702711         0.717615
 C         1.821074        -1.307623         0.602934
 H        -0.403530         1.144330         0.405522
 H        -0.329370         0.385444        -1.160639
 H        -0.486106        -0.678226         0.239024
 H         1.986030        -0.523391        -2.248118
 H         2.077488         1.258536        -1.928786
 H         4.454925         0.301437        -1.794080
 H         4.296951         1.491251         0.778861
 H         5.082400        -0.691029         0.455082
 H         1.317846        -2.146474         0.354422
 H         1.596232        -1.151801         1.680377
