19
Iteration:  3935charge 0 multiplicity 1
 C         0.066401         0.413796        -0.199287
 C         1.530765        -0.022899        -0.039291
 C         2.357922        -0.211026        -1.421903
 C         3.751859         0.259422        -1.043724
 C         3.543966         0.869585         0.362337
 O         2.152019         1.084646         0.728542
 C         4.080633        -0.586333         0.236333
 O         3.200940        -1.735475         0.381050
 C         1.815145        -1.389542         0.587740
 H         0.037056         1.438873        -0.629692
 H        -0.486695        -0.393229        -0.853762
 H        -0.445440         0.492875         0.725717
 H         2.313407        -1.250476        -1.873613
 H         1.840026         0.435417        -2.211213
 H         4.333773         0.694850        -1.863393
 H         4.275696         1.560852         0.799834
 H         5.189618        -0.802243         0.385661
 H         1.158448        -2.030874         0.123319
 H         1.797910        -1.346020         1.739634
