19
Iteration:  2704charge 0 multiplicity 1
 C         0.079311         0.356685        -0.192467
 C         1.534330        -0.055500        -0.159765
 C         2.444608         0.744570        -1.236824
 C         3.811311         0.708667        -0.501784
 C         3.464097         0.503290         0.994380
 O         2.087133         0.488123         1.080646
 C         3.977675        -0.670642         0.205785
 O         3.267427        -1.731860        -0.376734
 C         1.836337        -1.594959        -0.157722
 H        -0.007781         1.378942        -0.604454
 H        -0.490409        -0.306953        -0.881724
 H        -0.402454         0.264455         0.889983
 H         2.473509         0.299344        -2.195319
 H         1.948717         1.793165        -1.210146
 H         4.630247         1.208160        -0.986510
 H         3.920281         0.905743         1.878368
 H         4.995995        -1.004075         0.347989
 H         1.376475        -2.174936        -0.897709
 H         1.532153        -2.006365         0.848127
