19
Iteration:  3835charge 0 multiplicity 1
 C         0.056329         0.307179        -0.117045
 C         1.557811        -0.003556        -0.139545
 C         2.304055         0.179199        -1.500113
 C         3.668280         0.164994        -1.081789
 C         3.623458         0.810764         0.319525
 O         2.224984         0.905887         0.764720
 C         3.993071        -0.630418         0.220054
 O         3.205228        -1.602852         0.743832
 C         1.871950        -1.467947         0.337659
 H        -0.485792        -0.584227        -0.334821
 H        -0.358099         0.858888         0.808415
 H        -0.105702         1.088266        -0.936364
 H         1.956625        -0.693640        -2.185547
 H         2.025836         1.126396        -2.016631
 H         4.539931         0.405032        -1.734735
 H         4.181386         1.655241         0.705443
 H         5.037210        -0.896167         0.088192
 H         1.669486        -2.203374        -0.326986
 H         1.181474        -1.548327         1.226987
