19
Iteration:   809
 C         0.130249         0.280765        -0.240999
 C         1.522798         0.168532        -0.114602
 C         2.528243         1.415437        -0.170280
 C         3.798671         0.709684         0.439452
 C         3.270661        -0.488287         1.220236
 O         1.852039        -0.549960         1.204666
 C         4.017176        -0.716784        -0.066514
 O         3.363747        -1.203556        -1.203075
 C         1.991872        -0.843549        -1.239517
 H        -0.430704        -0.688792         0.034237
 H        -0.288624         0.946917         0.460637
 H        -0.168608         0.606010        -1.314285
 H         2.789900         1.726678        -1.181171
 H         2.294572         2.267596         0.433017
 H         4.756306         1.232432         0.679445
 H         3.639364        -0.964078         2.205291
 H         5.027058        -1.044251        -0.053509
 H         1.840718        -0.283388        -2.151703
 H         1.384956        -1.709201        -1.215697
