19
Iteration:   675charge 0 multiplicity 1
 C         0.029830         0.222787        -0.162914
 C         1.575864         0.212864        -0.158866
 C         2.448968         1.490610         0.054409
 C         3.754884         0.694873         0.351917
 C         3.298127        -0.508440         1.187584
 O         1.864413        -0.588514         1.125028
 C         4.022894        -0.732081        -0.094108
 O         3.304734        -1.411396        -1.052201
 C         2.131629        -0.575854        -1.470419
 H        -0.356158         0.780822        -0.990489
 H        -0.238195        -0.852236        -0.351874
 H        -0.149189         0.573375         0.830353
 H         2.582783         2.131498        -0.869212
 H         2.225930         2.088666         0.919295
 H         4.651880         1.196017         0.736752
 H         3.683241        -0.944494         2.035674
 H         5.079289        -1.158595        -0.103706
 H         2.593913         0.095204        -2.133779
 H         1.481655        -1.233347        -1.875529
