19
Iteration:  2637
 C         0.104616         0.267534        -0.196172
 C         1.622653        -0.008156        -0.154042
 C         2.396177         0.859931        -1.116734
 C         3.749798         0.671468        -0.612781
 C         3.537836         0.518748         0.927584
 O         2.101999         0.353960         1.190406
 C         4.051936        -0.670185         0.114091
 O         3.146438        -1.813460        -0.014072
 C         1.790596        -1.428253        -0.479344
 H        -0.209838        -0.367836        -1.044560
 H        -0.201788        -0.238793         0.692940
 H        -0.128820         1.438993        -0.470191
 H         2.133631         0.608305        -2.164755
 H         2.147067         2.005574        -0.989662
 H         4.648954         1.226124        -0.842704
 H         4.001642         1.217469         1.630943
 H         5.137780        -1.044853         0.155271
 H         1.785075        -1.432252        -1.533718
 H         1.085132        -2.239693        -0.155233
