19
Iteration:  3341
 C        -0.005300         0.255822        -0.238229
 C         1.545127         0.045385        -0.142127
 C         2.425692         0.232431        -1.373833
 C         3.765023         0.506888        -0.749414
 C         3.571647         0.734051         0.668295
 O         2.176815         0.798289         0.906806
 C         4.081174        -0.686279         0.194119
 O         3.149413        -1.724028         0.035103
 C         1.797862        -1.390498         0.307197
 H        -0.406452         0.003914        -1.267576
 H        -0.505459        -0.440741         0.429874
 H        -0.210849         1.288459         0.028595
 H         2.527269        -0.758991        -1.958330
 H         1.957880         0.949697        -2.081359
 H         4.534078         0.906853        -1.370237
 H         4.194173         1.274972         1.401924
 H         5.146298        -0.868881         0.415325
 H         1.194171        -2.045455        -0.245392
 H         1.595480        -1.493024         1.461143
