19
Iteration:  4673
 C         0.102607         0.346983        -0.216078
 C         1.530178         0.005474        -0.086261
 C         2.163153        -0.141516        -1.479236
 C         3.627833         0.041634        -1.118914
 C         3.606177         0.865393         0.135746
 O         2.244924         1.114658         0.505624
 C         4.036333        -0.565746         0.190265
 O         3.270440        -1.580274         0.936553
 C         1.889776        -1.414428         0.666880
 H        -0.425103         0.046479         0.606468
 H         0.008249         1.469063        -0.356473
 H        -0.395497        -0.188459        -1.072033
 H         2.029463        -1.186247        -1.896763
 H         1.880013         0.643983        -2.169257
 H         4.338354         0.162696        -1.918212
 H         4.273359         1.746060         0.367693
 H         5.066623        -0.592802         0.470735
 H         1.558412        -2.205974         0.020934
 H         1.373614        -1.708607         1.655083
