19
Iteration:  4604charge 0 multiplicity 1
 C         0.099156         0.205126        -0.161745
 C         1.600132        -0.009718        -0.119891
 C         2.187521        -0.088973        -1.513915
 C         3.643610         0.001058        -1.063688
 C         3.617273         0.898906         0.181961
 O         2.273406         1.148093         0.485503
 C         4.015349        -0.596811         0.282517
 O         3.246283        -1.571700         0.897569
 C         1.839810        -1.334007         0.526037
 H         0.021941         1.114977         0.562590
 H        -0.378507         0.534490        -1.033039
 H        -0.535856        -0.493182         0.442360
 H         1.940133        -1.092769        -1.874534
 H         1.816023         0.802124        -2.198503
 H         4.275940        -0.061767        -2.003658
 H         4.265001         1.703763         0.444984
 H         5.095652        -0.664001         0.553511
 H         1.448772        -2.095454        -0.142227
 H         1.132131        -1.487475         1.431667
