19
Iteration:  1526
 C        -0.014991         0.464175        -0.433969
 C         1.585223        -0.046631        -0.086281
 C         2.498797         1.087735        -0.528893
 C         3.861478         0.773657         0.107328
 C         3.360463        -0.115490         1.202634
 O         1.912943        -0.040108         1.350449
 C         4.061809        -0.670539        -0.035015
 O         3.332652        -1.341814        -1.055498
 C         1.899518        -1.387448        -0.748176
 H        -0.320370         0.535523         0.688660
 H        -0.187974         1.469665        -0.933552
 H        -0.566263        -0.276203        -1.029997
 H         2.440855         1.155016        -1.746067
 H         2.149113         2.064594        -0.153219
 H         4.805159         1.370910         0.207396
 H         3.838293        -0.258996         2.216528
 H         5.024304        -1.170764        -0.064417
 H         1.526734        -1.454954        -1.696612
 H         1.749790        -2.234499        -0.076692
