19
Iteration:  4470
 C         0.107585         0.214113        -0.096160
 C         1.543892        -0.022034        -0.256893
 C         2.249514         0.011204        -1.606726
 C         3.752291         0.155237        -1.094052
 C         3.641282         0.817167         0.255572
 O         2.255685         0.969655         0.586290
 C         4.059614        -0.597191         0.175334
 O         3.137328        -1.480567         0.864106
 C         1.748944        -1.396666         0.633107
 H        -0.530720         0.091844        -1.022519
 H        -0.233513        -0.371276         0.760509
 H        -0.032617         1.168177         0.287239
 H         2.004442        -0.926835        -2.141840
 H         2.054096         0.832006        -2.386226
 H         4.443879         0.388189        -1.825261
 H         4.341117         1.573103         0.746298
 H         5.058696        -0.946831         0.258862
 H         1.544185        -2.347993         0.240606
 H         1.247593        -1.079924         1.639792
