19
Iteration:    55
 C         0.130501         0.346889        -0.208825
 C         1.627566         0.138316        -0.083325
 C         2.426024         1.276466         0.499568
 C         3.697313         0.526382         0.794269
 C         3.228900        -0.891659         1.101131
 O         1.904744        -0.967355         0.699805
 C         4.064594        -0.663581        -0.144476
 O         3.323725        -0.905487        -1.348376
 C         2.064348        -0.159764        -1.437562
 H        -0.244581        -0.687136        -0.228506
 H        -0.295398         0.887950         0.667444
 H        -0.045548         0.946200        -1.105203
 H         2.489218         2.186931        -0.076372
 H         2.039663         1.555619         1.471656
 H         4.486510         0.915432         1.435094
 H         3.515552        -1.399398         2.043683
 H         5.128981        -0.933702        -0.209996
 H         2.348287         0.753811        -1.989503
 H         1.464280        -0.804716        -2.049671
