19
Iteration:  2798
 C         0.079395         0.315109        -0.147927
 C         1.557029         0.090672        -0.221965
 C         2.382380         0.782062        -1.288112
 C         3.739751         0.613138        -0.627728
 C         3.517794         0.507363         0.923576
 O         2.089385         0.492500         1.138306
 C         3.990542        -0.673693         0.160204
 O         3.272101        -1.820431        -0.026798
 C         1.884261        -1.513099        -0.288471
 H        -0.445874        -0.432094         0.563638
 H        -0.255256         1.318750         0.229080
 H        -0.477001         0.168813        -1.077461
 H         2.306914         0.127732        -2.310790
 H         2.166100         1.789846        -1.533294
 H         4.596057         1.051973        -1.111303
 H         3.954891         0.987886         1.766848
 H         5.085126        -0.911594         0.310442
 H         1.553386        -1.941979        -1.313276
 H         1.340921        -2.007847         0.462029
