19
Iteration:  1136
 C         0.078524         0.451493        -0.297169
 C         1.529244        -0.004342        -0.089496
 C         2.531798         1.221853        -0.453049
 C         3.822850         0.755385         0.328532
 C         3.296294        -0.355070         1.219625
 O         1.869762        -0.298053         1.299547
 C         4.010374        -0.709522        -0.034664
 O         3.383667        -1.096505        -1.243379
 C         1.941293        -1.215468        -0.919326
 H        -0.089370         0.947661        -1.322081
 H        -0.422003        -0.489344        -0.218808
 H        -0.183575         1.090557         0.593972
 H         2.716663         0.954820        -1.522167
 H         2.264476         2.226623        -0.256520
 H         4.643283         1.389134         0.619478
 H         3.753452        -0.670350         2.229405
 H         5.058387        -1.207737         0.012730
 H         1.407260        -1.109046        -1.830154
 H         1.686201        -2.194642        -0.402201
