19
Iteration:  4032
 C         0.025711         0.370293        -0.039071
 C         1.530308        -0.005597        -0.100443
 C         2.278082        -0.056787        -1.463278
 C         3.727315         0.175137        -1.097358
 C         3.620060         0.861612         0.228988
 O         2.249889         0.992243         0.662293
 C         4.091448        -0.617825         0.230246
 O         3.171316        -1.539420         0.760263
 C         1.795598        -1.464533         0.364310
 H        -0.360582         0.662654         0.906760
 H        -0.164050         1.006856        -0.965229
 H        -0.465953        -0.578531        -0.169217
 H         2.372685        -1.034375        -2.053142
 H         2.023376         0.709460        -2.247608
 H         4.472593         0.447038        -1.805790
 H         4.224291         1.673167         0.715169
 H         5.114652        -0.940462         0.476725
 H         1.497484        -2.217762        -0.505517
 H         1.147465        -1.730821         1.298164
