19
Iteration:   355charge 0 multiplicity 1
 C         0.057547         0.539177        -0.070488
 C         1.539523         0.081791        -0.122773
 C         2.496849         1.289955         0.037155
 C         3.712978         0.585138         0.667797
 C         3.158474        -0.850851         1.142218
 O         1.746201        -0.735527         1.048086
 C         4.061419        -0.663222        -0.057979
 O         3.563414        -0.726262        -1.478903
 C         2.119119        -0.844680        -1.323299
 H        -0.402758        -0.203768         0.674290
 H        -0.009653         1.594899         0.299143
 H        -0.390700         0.464091        -1.046263
 H         2.676336         1.718311        -0.926383
 H         2.132221         2.067931         0.618187
 H         4.526666         1.155938         1.223227
 H         3.422338        -1.374839         2.080650
 H         5.166649        -1.020388        -0.046357
 H         1.598850        -0.404069        -2.239845
 H         1.991197        -1.909592        -1.177545
