19
Iteration:  2119charge 0 multiplicity 1
 C         0.033070         0.362712        -0.263545
 C         1.546887        -0.035563        -0.078544
 C         2.547832         0.928206        -0.886422
 C         3.870641         0.802577        -0.100186
 C         3.394873         0.093710         1.175136
 O         2.008101         0.187666         1.213002
 C         4.001709        -0.668430         0.041855
 O         3.257076        -1.452982        -0.825382
 C         1.871102        -1.465533        -0.535314
 H        -0.651828         0.034631         0.520882
 H        -0.031778         1.474069        -0.376208
 H        -0.280917        -0.157446        -1.247184
 H         2.611676         0.521330        -1.949282
 H         2.165939         1.907268        -0.720132
 H         4.613903         1.598943        -0.286124
 H         3.848871         0.142928         2.206668
 H         4.922524        -1.143597         0.267559
 H         1.251867        -1.909565        -1.349022
 H         1.533882        -2.073224         0.359246
