19
Iteration:  4621
 C         0.020159         0.339477        -0.024729
 C         1.528924        -0.025765        -0.197797
 C         2.246194        -0.136216        -1.599213
 C         3.726487         0.063733        -1.136636
 C         3.645593         0.835513         0.188376
 O         2.264199         1.006484         0.510947
 C         4.047980        -0.559601         0.234810
 O         3.183014        -1.436559         0.977937
 C         1.836711        -1.382781         0.559457
 H        -0.303471         0.973180         0.822774
 H        -0.298153         0.545176        -1.102354
 H        -0.516489        -0.578969         0.098119
 H         2.030740        -1.084589        -2.098516
 H         1.929269         0.698405        -2.165237
 H         4.559324         0.287639        -1.801643
 H         4.290797         1.695422         0.437149
 H         5.051015        -0.956146         0.186123
 H         1.599846        -2.346152        -0.065379
 H         1.302547        -1.571004         1.467624
