19
Iteration:  4295
 C         0.095339         0.316822        -0.178839
 C         1.540377        -0.045359        -0.152855
 C         2.339060        -0.084870        -1.582354
 C         3.667485         0.283250        -1.068539
 C         3.591780         0.804903         0.334506
 O         2.233130         0.923080         0.756061
 C         4.014946        -0.583420         0.185431
 O         3.201302        -1.601676         0.603881
 C         1.782672        -1.270645         0.616691
 H        -0.296587         0.559553         0.938728
 H        -0.203120         1.170902        -0.917916
 H        -0.422760        -0.547942        -0.561919
 H         2.276843        -1.140237        -1.872567
 H         1.967620         0.603657        -2.360972
 H         4.583757         0.459727        -1.703888
 H         4.242848         1.520996         0.713488
 H         5.091422        -0.903032         0.262825
 H         1.403343        -2.181273         0.092750
 H         1.447900        -1.346350         1.688508
