19
Iteration:   469
 C         0.075920         0.321589        -0.116186
 C         1.543146         0.147860        -0.128633
 C         2.454739         1.400910         0.028528
 C         3.733990         0.727949         0.574274
 C         3.264287        -0.622670         1.185450
 O         1.916861        -0.811711         0.908499
 C         4.071963        -0.695903        -0.124207
 O         3.271588        -1.287353        -1.091261
 C         2.164939        -0.430580        -1.437078
 H        -0.061352         1.400235        -0.178546
 H        -0.649555        -0.017238        -0.892029
 H        -0.296752        -0.162274         0.798738
 H         2.451931         2.113194        -0.862067
 H         2.048895         2.019714         0.867253
 H         4.572479         1.236796         1.118450
 H         3.610744        -0.994434         2.220401
 H         5.065204        -1.028804        -0.151673
 H         2.436186         0.388057        -2.121513
 H         1.513420        -1.233457        -1.815965
