19
Iteration:  1821charge 0 multiplicity 1
 C        -0.004280         0.370454        -0.067857
 C         1.524317         0.051415        -0.268686
 C         2.476646         1.126548        -0.702493
 C         3.827933         0.814876        -0.083069
 C         3.395022         0.040247         1.127952
 O         1.977122        -0.111083         1.187612
 C         4.090327        -0.705940         0.016155
 O         3.217035        -1.702566        -0.490386
 C         2.012203        -1.131958        -1.047124
 H         0.021226         1.280533         0.697105
 H        -0.623009         0.579982        -0.947114
 H        -0.353316        -0.533241         0.510266
 H         2.507018         1.305806        -1.874665
 H         2.096199         2.090585        -0.407327
 H         4.606341         1.613254        -0.110508
 H         3.687009         0.144906         2.230893
 H         5.077157        -1.121244         0.109725
 H         2.180854        -0.799944        -2.014016
 H         1.244047        -1.990983        -1.176955
