19
Iteration:  4909
 C         0.049517         0.338659        -0.237445
 C         1.498015        -0.108172        -0.116244
 C         2.249340        -0.194533        -1.480293
 C         3.667611         0.095934        -1.073888
 C         3.644979         0.880228         0.180517
 O         2.275939         1.012299         0.619685
 C         4.121082        -0.515824         0.222055
 O         3.173618        -1.598455         0.649062
 C         1.809820        -1.284466         0.757548
 H        -0.086721         1.486976        -0.128778
 H        -0.416926         0.174694        -1.186241
 H        -0.445908        -0.305079         0.602639
 H         2.102721        -1.129186        -1.974757
 H         2.163255         0.698641        -2.138768
 H         4.423378         0.308040        -1.815533
 H         4.084326         1.812407         0.380343
 H         5.170398        -0.818412         0.437632
 H         1.265311        -2.152527         0.645652
 H         1.487641        -0.858150         1.734155
