19
Iteration:   835
 C         0.049756         0.432345        -0.130478
 C         1.504066         0.101578        -0.224727
 C         2.424582         1.297965        -0.108801
 C         3.784030         0.752183         0.372531
 C         3.314302        -0.362031         1.207333
 O         1.965243        -0.593810         1.047373
 C         4.038472        -0.700781        -0.006529
 O         3.344014        -1.385580        -1.024885
 C         2.056332        -0.782321        -1.393649
 H        -0.614133        -0.346242        -0.484932
 H        -0.179156         0.361587         1.001387
 H        -0.253386         1.324490        -0.650048
 H         2.510649         1.882460        -1.013463
 H         2.058833         1.922823         0.751356
 H         4.593018         1.282279         0.859418
 H         3.617987        -0.551665         2.176699
 H         5.107927        -1.016505         0.027915
 H         2.177624        -0.072240        -2.272962
 H         1.392043        -1.651467        -1.495090
