19
Iteration:  2140charge 0 multiplicity 1
 C         0.065600         0.329131        -0.262077
 C         1.534406         0.065362        -0.146708
 C         2.552883         0.939631        -0.975330
 C         3.834231         0.775432        -0.066110
 C         3.376615         0.128286         1.145415
 O         1.942141         0.197568         1.306078
 C         4.075801        -0.732339         0.038410
 O         3.259804        -1.505683        -0.865863
 C         1.866129        -1.411776        -0.447433
 H        -0.401330        -0.594560         0.047565
 H        -0.243842         1.066412         0.504583
 H        -0.278197         0.497641        -1.354653
 H         2.839993         0.268837        -1.925788
 H         2.269657         1.968370        -1.101097
 H         4.540178         1.634343        -0.091568
 H         3.928892         0.247273         2.120338
 H         5.078631        -1.113477         0.158709
 H         1.215197        -1.721797        -1.317144
 H         1.567363        -2.084534         0.346733
