19
Iteration:  2331
 C         0.155707         0.456667        -0.264769
 C         1.513265        -0.052316        -0.102082
 C         2.480252         0.859070        -1.037458
 C         3.799494         0.737602        -0.286620
 C         3.295895         0.201286         1.155320
 O         1.957599         0.279076         1.260619
 C         4.008793        -0.650916         0.039006
 O         3.301249        -1.619256        -0.726673
 C         1.946846        -1.493752        -0.337371
 H        -0.371598         0.473741         0.717905
 H         0.185433         1.459133        -0.676956
 H        -0.469098        -0.106801        -0.937359
 H         2.626285         0.322137        -1.921438
 H         2.200756         1.976017        -1.148671
 H         4.573250         1.484687        -0.537724
 H         3.834644         0.550862         2.062624
 H         5.069413        -0.939973         0.173509
 H         1.311220        -2.032865        -0.973402
 H         1.909109        -2.079438         0.572960
