19
Iteration:  3319charge 0 multiplicity 1
 C         0.068381         0.358630        -0.264271
 C         1.526232         0.010780        -0.095386
 C         2.409211         0.266199        -1.452015
 C         3.787354         0.486165        -0.850730
 C         3.478001         0.666572         0.739711
 O         2.112403         0.789410         0.989241
 C         4.073704        -0.653007         0.108825
 O         3.216630        -1.756485         0.092683
 C         1.827736        -1.467139         0.299482
 H        -0.392385        -0.485618        -0.894462
 H        -0.388258         0.387426         0.735490
 H         0.054033         1.345087        -0.701696
 H         2.260696        -0.619351        -2.189987
 H         2.022147         1.124522        -2.031711
 H         4.459878         1.197859        -1.288546
 H         4.091390         1.295050         1.369763
 H         5.113515        -0.734552         0.463436
 H         1.249002        -2.182208        -0.171904
 H         1.638418        -1.502544         1.450652
