19
Iteration:  4526
 C         0.032121         0.336351        -0.256386
 C         1.503677        -0.034053        -0.005264
 C         2.274507        -0.270501        -1.372994
 C         3.740207         0.135928        -1.067497
 C         3.571318         0.873046         0.239682
 O         2.225752         1.144191         0.537633
 C         4.026988        -0.533409         0.251731
 O         3.259936        -1.703286         0.498739
 C         1.852316        -1.270041         0.764994
 H        -0.026799         1.298324        -0.917161
 H        -0.552531        -0.489419        -0.669969
 H        -0.544839         0.735344         0.568286
 H         2.254189        -1.313000        -1.673230
 H         1.893311         0.461316        -2.205556
 H         4.519236         0.249083        -1.854109
 H         4.237666         1.612026         0.666887
 H         5.092001        -0.695414         0.397322
 H         1.265147        -2.115951         0.417276
 H         1.504033        -1.258250         1.916310
