19
Iteration:  4892charge 0 multiplicity 1
 C         0.060994         0.287225        -0.098063
 C         1.546320        -0.045549        -0.203780
 C         2.285321        -0.109947        -1.606089
 C         3.738614         0.066277        -1.148006
 C         3.580011         0.817881         0.221034
 O         2.220424         0.981221         0.585698
 C         4.021772        -0.597383         0.211231
 O         3.236406        -1.539848         0.812190
 C         1.805923        -1.185521         0.709613
 H         0.009182         1.302970         0.167280
 H        -0.439486         0.312965        -1.151799
 H        -0.467183        -0.364573         0.540549
 H         1.982603        -1.162744        -1.985439
 H         1.727391         0.585329        -2.218075
 H         4.538940         0.371059        -1.890038
 H         4.324901         1.575907         0.573694
 H         5.094937        -0.808554         0.436760
 H         1.373375        -2.202385         0.238677
 H         1.504154        -1.081651         1.776579
