19
Iteration:  1735
 C         0.176279         0.454727        -0.279731
 C         1.566672         0.053776        -0.125240
 C         2.514880         1.027431        -0.710276
 C         3.777056         0.808412         0.031431
 C         3.306887         0.005626         1.216061
 O         1.893076        -0.091449         1.328959
 C         3.980602        -0.727671        -0.033470
 O         3.321523        -1.388516        -1.019184
 C         1.922038        -1.404020        -0.672140
 H         0.009448         1.136559        -1.209999
 H        -0.505672        -0.361933        -0.340815
 H        -0.061478         1.014045         0.639616
 H         2.763176         0.932479        -1.859231
 H         2.170955         2.102544        -0.649236
 H         4.555577         1.544479         0.188625
 H         3.808704        -0.006075         2.227051
 H         4.891081        -1.272983         0.150636
 H         1.423027        -1.760105        -1.631539
 H         1.990718        -1.916847         0.269263
