19
Iteration:  4529
 C         0.061408         0.322422        -0.244405
 C         1.506026        -0.025720        -0.028626
 C         2.287003        -0.278691        -1.403745
 C         3.714801         0.147610        -1.077230
 C         3.565475         0.874447         0.230258
 O         2.217435         1.128834         0.555839
 C         4.026062        -0.534661         0.246805
 O         3.258294        -1.703288         0.496377
 C         1.839751        -1.243209         0.804369
 H         0.027817         1.233256        -0.827681
 H        -0.461141        -0.402404        -0.809017
 H        -0.553194         0.711065         0.624767
 H         2.279592        -1.339042        -1.662134
 H         1.923394         0.391759        -2.188068
 H         4.607193         0.290550        -1.782793
 H         4.192957         1.552654         0.720882
 H         5.124317        -0.715074         0.338356
 H         1.157760        -2.049700         0.438740
 H         1.508058        -1.241618         1.861326
