19
Iteration:  3305charge 0 multiplicity 1
 C         0.071976         0.384480        -0.271931
 C         1.547393        -0.089585        -0.132512
 C         2.336252         0.368138        -1.357437
 C         3.733858         0.505438        -0.800098
 C         3.536207         0.735199         0.651200
 O         2.115292         0.782563         0.914642
 C         4.013356        -0.600676         0.192271
 O         3.270348        -1.833110         0.111921
 C         1.862473        -1.510125         0.304236
 H        -0.623714        -0.303997        -0.647536
 H        -0.264359         0.908007         0.674152
 H        -0.016623         1.140268        -0.993466
 H         2.387408        -0.436060        -2.199989
 H         2.019862         1.319848        -1.688686
 H         4.587825         0.717445        -1.466295
 H         4.108524         1.242643         1.384211
 H         5.032463        -0.974282         0.353256
 H         1.329670        -2.195012        -0.391140
 H         1.472305        -1.753750         1.402339
