19
Iteration:  3018
 C         0.078537         0.282101        -0.077955
 C         1.564885        -0.014132        -0.244664
 C         2.405982         0.714180        -1.300433
 C         3.801493         0.541091        -0.810012
 C         3.487512         0.620525         0.750375
 O         2.100058         0.554653         0.980950
 C         4.037162        -0.630469         0.153913
 O         3.172625        -1.801126         0.283052
 C         1.878756        -1.518162        -0.198559
 H        -0.287101        -0.134079         0.857970
 H        -0.041050         1.344779         0.022151
 H        -0.632581        -0.044202        -0.930892
 H         2.137259         0.313814        -2.349110
 H         2.128604         1.771557        -1.320022
 H         4.721825         1.071315        -1.189875
 H         4.016002         1.215456         1.495092
 H         5.064827        -0.952258         0.453461
 H         1.707814        -2.069749        -1.177785
 H         1.189836        -2.151739         0.527398
