19
Iteration:    23
 C         0.005516         0.456519        -0.187344
 C         1.515508         0.084001        -0.079078
 C         2.377541         1.203377         0.540786
 C         3.713083         0.471263         0.758301
 C         3.249312        -0.959423         1.011680
 O         1.782226        -0.936882         0.936353
 C         4.131412        -0.639621        -0.189249
 O         3.549700        -0.808073        -1.467346
 C         2.169010        -0.227587        -1.484666
 H        -0.524690         0.054540         0.661221
 H        -0.116993         1.556527        -0.105294
 H        -0.547393         0.146050        -1.087337
 H         2.381705         2.079187        -0.073480
 H         1.995463         1.482185         1.542164
 H         4.415202         1.034154         1.390397
 H         3.622167        -1.612250         1.819212
 H         5.192006        -1.010561        -0.200397
 H         2.229137         0.742081        -2.008930
 H         1.525994        -0.882169        -2.053724
