19
Iteration:   381
 C         0.086990         0.494739        -0.230568
 C         1.534807         0.002249        -0.165020
 C         2.570014         1.270592         0.078653
 C         3.762245         0.601111         0.712311
 C         3.241505        -0.666886         1.176275
 O         1.826719        -0.799539         1.042648
 C         4.048485        -0.684618        -0.087206
 O         3.449684        -0.708253        -1.387423
 C         1.954080        -0.829213        -1.288597
 H        -0.755548        -0.217317        -0.604963
 H        -0.052560         0.807686         0.888487
 H         0.152480         1.425335        -0.835562
 H         2.797058         1.819401        -0.932211
 H         2.087687         2.054712         0.770564
 H         4.507465         1.165411         1.183923
 H         3.579976        -1.244681         2.027698
 H         5.028913        -1.121881        -0.123822
 H         1.493466        -0.553148        -2.230437
 H         1.777161        -1.920530        -1.135418
