19
Iteration:   802
 C         0.078018         0.285342        -0.282462
 C         1.561754         0.123446        -0.105567
 C         2.565088         1.392914        -0.171920
 C         3.808576         0.681230         0.456804
 C         3.244120        -0.494861         1.192921
 O         1.875564        -0.530147         1.234047
 C         3.972076        -0.737514        -0.077591
 O         3.387278        -1.138800        -1.250820
 C         1.986637        -0.817931        -1.164418
 H        -0.246218        -0.657764         0.141254
 H        -0.361015         1.234595         0.178085
 H        -0.271075         0.353919        -1.301558
 H         2.749655         1.681108        -1.199582
 H         2.275876         2.330312         0.394874
 H         4.655135         1.132255         0.994036
 H         3.754564        -0.836262         2.023353
 H         5.003579        -1.066246         0.032757
 H         1.619147        -0.511789        -2.195537
 H         1.435514        -1.802360        -1.118131
