19
Iteration:  4076charge 0 multiplicity 1
 C         0.139865         0.356882        -0.200449
 C         1.542448        -0.100021        -0.111260
 C         2.251906         0.066572        -1.546496
 C         3.685617         0.147228        -1.112470
 C         3.555709         0.863564         0.263563
 O         2.204341         0.915969         0.639372
 C         4.024238        -0.569926         0.183428
 O         3.236338        -1.657648         0.748521
 C         1.876431        -1.397320         0.659362
 H        -0.525089        -0.078230         0.541010
 H         0.352065         1.483504        -0.060281
 H        -0.284297         0.217389        -1.188053
 H         1.812184        -0.708500        -2.225293
 H         1.780718         1.017753        -1.904733
 H         4.443885         0.453274        -1.783835
 H         4.142267         1.806328         0.574701
 H         5.037554        -0.835255         0.297192
 H         1.353058        -2.325485         0.159397
 H         1.348857        -1.193517         1.644073
