19
Iteration:  2473charge 0 multiplicity 1
 C         0.012584         0.328708        -0.225399
 C         1.511796         0.037554        -0.164717
 C         2.460714         0.811947        -1.054339
 C         3.805677         0.758506        -0.432699
 C         3.524249         0.288190         1.064441
 O         2.073913         0.335645         1.225026
 C         4.047809        -0.672317         0.055380
 O         3.248254        -1.700383        -0.247937
 C         1.830185        -1.433301        -0.532010
 H        -0.340706         1.272228        -0.648881
 H        -0.493245        -0.436478        -0.775751
 H        -0.352966         0.186447         0.841513
 H         2.501949         0.317887        -2.017275
 H         2.231717         1.937921        -1.262270
 H         4.578623         1.465126        -0.738631
 H         4.007340         0.760307         1.912334
 H         5.033928        -1.056305         0.089267
 H         1.543532        -1.571662        -1.705953
 H         1.240399        -2.112725         0.029165
