19
Iteration:    19
 C         0.011750         0.470732        -0.175778
 C         1.502874         0.083416        -0.087424
 C         2.390323         1.183639         0.510368
 C         3.717095         0.453050         0.770659
 C         3.252308        -0.972097         0.986738
 O         1.791933        -0.908812         0.927009
 C         4.134404        -0.636540        -0.181104
 O         3.565183        -0.785675        -1.460612
 C         2.165128        -0.247642        -1.457455
 H        -0.627142         0.096726         0.761030
 H        -0.127485         1.552411        -0.224670
 H        -0.541486         0.010592        -0.997777
 H         2.376520         2.111089        -0.142431
 H         1.906973         1.366468         1.472207
 H         4.371148         0.907834         1.485874
 H         3.553704        -1.560460         1.825007
 H         5.131624        -0.935382        -0.202673
 H         2.130235         0.768571        -1.940935
 H         1.449705        -0.886080        -2.057621
