19
Iteration:   289charge 0 multiplicity 1
 C         0.051163         0.380764        -0.249542
 C         1.588188         0.142521        -0.092410
 C         2.473960         1.392034         0.323034
 C         3.741959         0.650742         0.637878
 C         3.248952        -0.732636         1.132575
 O         1.840218        -0.883279         0.990456
 C         4.053951        -0.669730        -0.133911
 O         3.396796        -1.102565        -1.372527
 C         2.133403        -0.448869        -1.396928
 H        -0.330930         1.421342        -0.272683
 H        -0.478210        -0.215010        -0.998092
 H        -0.301003         0.046152         0.781830
 H         2.428359         1.929474        -0.594965
 H         2.089420         2.003008         1.098788
 H         4.528192         1.205463         1.227001
 H         3.616223        -1.158744         2.130919
 H         5.069950        -1.039003        -0.189142
 H         2.183450         0.406956        -2.175423
 H         1.322307        -1.074362        -1.704033
