19
Iteration:  2006
 C        -0.023059         0.314179        -0.138120
 C         1.555561         0.090469        -0.215772
 C         2.446498         1.188195        -0.677005
 C         3.794041         0.752521        -0.189462
 C         3.419823         0.127554         1.116413
 O         2.017506         0.096247         1.195710
 C         4.073976        -0.742632         0.018631
 O         3.250631        -1.761442        -0.467201
 C         1.963880        -1.307268        -0.936572
 H        -0.509821         0.880893        -0.980575
 H        -0.389560        -0.683041         0.048221
 H        -0.431162         0.827859         0.733226
 H         2.455966         1.348170        -1.850758
 H         2.197930         2.120186        -0.198712
 H         4.641014         1.420009        -0.322659
 H         3.907245         0.301935         2.011319
 H         5.135101        -0.983407         0.019465
 H         2.010931        -1.136654        -2.124109
 H         1.341264        -2.183241        -0.853128
