19
Iteration:   634
 C         0.082328         0.362051        -0.209908
 C         1.562334         0.170743        -0.137798
 C         2.453951         1.405626         0.029420
 C         3.787968         0.712551         0.385249
 C         3.333913        -0.520278         1.264686
 O         1.919033        -0.805979         1.065595
 C         4.008508        -0.666300        -0.078182
 O         3.277554        -1.303145        -1.081913
 C         2.092989        -0.603461        -1.410205
 H        -0.403096        -0.095418        -1.109509
 H        -0.459616        -0.061169         0.564431
 H        -0.255262         1.474217        -0.319439
 H         2.373252         2.010748        -0.870865
 H         2.099498         2.023221         0.809169
 H         4.593764         1.307529         0.783021
 H         3.796274        -0.701178         2.188585
 H         5.139966        -0.897726        -0.111311
 H         2.172759         0.150808        -2.336882
 H         1.349511        -1.469872        -1.601205
