19
Iteration:  1581
 C        -0.054752         0.376027        -0.121531
 C         1.576678         0.061595        -0.211338
 C         2.561965         1.198137        -0.629705
 C         3.833844         0.835240         0.061218
 C         3.339162        -0.112819         1.251520
 O         1.911116        -0.077113         1.178091
 C         4.047692        -0.718721         0.044913
 O         3.364821        -1.496307        -0.908098
 C         1.918516        -1.279967        -0.920429
 H        -0.364201         0.048091         0.909096
 H        -0.103106         1.412856        -0.407500
 H        -0.627634        -0.193436        -0.845649
 H         2.764429         1.117601        -1.766129
 H         2.353802         2.195111        -0.217107
 H         4.596872         1.589201         0.011099
 H         3.743505        -0.311009         2.244493
 H         5.020268        -1.201268         0.300563
 H         1.590234        -1.367533        -1.906376
 H         1.351664        -2.076701        -0.478777
