19
Iteration:  1753
 C         0.019303         0.441116        -0.331537
 C         1.524408         0.034806        -0.102898
 C         2.472162         1.147763        -0.655475
 C         3.820203         0.778981         0.001154
 C         3.327986        -0.108933         1.237607
 O         1.952652         0.036469         1.307266
 C         4.050190        -0.707162         0.015599
 O         3.365105        -1.517559        -1.030215
 C         1.942938        -1.383925        -0.651684
 H         0.117353         1.337241        -0.983051
 H        -0.538967        -0.379447        -0.839591
 H        -0.354358         0.726861         0.630686
 H         2.490630         1.214281        -1.773106
 H         2.057479         2.064084        -0.390756
 H         4.649267         1.431425        -0.094581
 H         3.862481        -0.127959         2.134856
 H         5.175277        -0.893714         0.117473
 H         1.407405        -1.518908        -1.569531
 H         1.580897        -2.237521         0.045079
