19
Iteration:  3443charge 0 multiplicity 1
 C         0.064430         0.414636        -0.217418
 C         1.505370         0.028477        -0.178917
 C         2.277312         0.304385        -1.455250
 C         3.680255         0.386739        -0.932223
 C         3.599360         0.755159         0.568360
 O         2.224981         0.741637         0.936500
 C         4.017642        -0.621157         0.221329
 O         3.232683        -1.694668         0.483686
 C         1.849843        -1.606137         0.157642
 H        -0.045729         1.087870         0.643688
 H        -0.143083         0.987542        -1.111649
 H        -0.643971        -0.486219        -0.188352
 H         2.254482        -0.411662        -2.216427
 H         2.058087         1.336356        -1.986123
 H         4.508902         0.726547        -1.572805
 H         4.191728         1.456658         1.082326
 H         5.108201        -0.796753         0.281870
 H         1.617364        -2.134788        -0.736170
 H         1.262749        -2.090133         1.013411
