19
Iteration:  1138
 C         0.099576         0.452715        -0.315512
 C         1.522601         0.016145        -0.069226
 C         2.543254         1.196458        -0.435039
 C         3.814954         0.749174         0.324481
 C         3.301902        -0.351973         1.206994
 O         1.867347        -0.297814         1.306046
 C         4.004570        -0.714323        -0.037596
 O         3.383370        -1.084227        -1.259948
 C         1.939609        -1.227673        -0.897799
 H        -0.072342         0.978143        -1.285013
 H        -0.403155        -0.477630        -0.295598
 H        -0.226703         0.973392         0.624425
 H         2.753371         1.017012        -1.572132
 H         2.229426         2.316977        -0.284896
 H         4.619889         1.414927         0.583317
 H         3.725127        -0.612296         2.228225
 H         5.002445        -1.182386         0.069265
 H         1.382865        -1.158264        -1.868915
 H         1.675205        -2.247196        -0.395540
