19
Iteration:  3752
 C         0.030720         0.179410        -0.254582
 C         1.526902         0.044709        -0.070239
 C         2.366159         0.172228        -1.384814
 C         3.813030         0.310572        -0.934394
 C         3.587076         0.778071         0.406298
 O         2.192207         1.029741         0.711239
 C         4.054138        -0.685396         0.144107
 O         3.124491        -1.776055         0.281750
 C         1.838995        -1.347310         0.654160
 H        -0.467527         0.553833         0.687937
 H        -0.222319         0.959752        -1.030002
 H        -0.403382        -0.753079        -0.455360
 H         2.168906        -0.702859        -2.051156
 H         1.985972         1.163858        -1.822652
 H         4.556494         0.638134        -1.674318
 H         4.161097         1.403385         0.968857
 H         5.057007        -0.903960         0.634518
 H         1.184939        -2.209322         0.274693
 H         1.730133        -1.255401         1.727465
