19
Iteration:  2235
 C        -0.030657         0.296841        -0.184299
 C         1.555937         0.035848        -0.222609
 C         2.461320         1.088972        -0.877188
 C         3.772509         0.736164        -0.384072
 C         3.473614         0.296584         1.084088
 O         2.077438         0.089347         1.208549
 C         4.092873        -0.715873         0.058470
 O         3.178758        -1.755613        -0.220006
 C         1.924580        -1.288713        -0.816626
 H        -0.435111         1.092726        -0.780743
 H        -0.609380        -0.581736        -0.355438
 H        -0.210228         0.612653         0.905607
 H         2.416326         0.911603        -1.884796
 H         2.145833         2.066978        -0.521328
 H         4.701171         1.294753        -0.640851
 H         3.905385         0.694327         2.067074
 H         5.137986        -1.132055         0.087959
 H         2.125679        -1.227534        -1.890282
 H         1.138935        -2.121413        -0.815226
