19
Iteration:  1367charge 0 multiplicity 1
 C         0.072011         0.402278        -0.201358
 C         1.492739         0.061358        -0.119134
 C         2.507224         1.083043        -0.670072
 C         3.810501         0.783748         0.178831
 C         3.306997        -0.154664         1.227976
 O         1.900563        -0.168234         1.266044
 C         4.022504        -0.704788        -0.002178
 O         3.412076        -1.321445        -1.078171
 C         1.940654        -1.253989        -0.850378
 H        -0.123420         0.975126        -1.123548
 H        -0.670036        -0.401923        -0.065062
 H        -0.156287         1.071863         0.663426
 H         2.687791         1.069563        -1.783307
 H         2.239381         2.127849        -0.266964
 H         4.632926         1.517394         0.368642
 H         3.780672        -0.312796         2.233636
 H         5.013721        -1.189565         0.154249
 H         1.540339        -1.216051        -1.907904
 H         1.637940        -2.059670        -0.186923
