19
Iteration:  4247charge 0 multiplicity 1
 C         0.095961         0.340536        -0.050402
 C         1.561577         0.057923        -0.210683
 C         2.220814         0.200429        -1.571545
 C         3.663874        -0.026075        -1.065966
 C         3.573407         0.828306         0.308107
 O         2.184706         0.988968         0.633555
 C         4.005656        -0.577238         0.248371
 O         3.275064        -1.665342         0.847223
 C         1.920916        -1.474688         0.358605
 H        -0.087611         1.030349         0.644347
 H        -0.319435         0.653255        -0.992866
 H        -0.429569        -0.633567         0.155280
 H         1.806558        -0.718266        -2.087940
 H         2.125615         1.122550        -2.105114
 H         4.534309         0.245670        -1.596116
 H         4.077684         1.836595         0.547967
 H         5.005028        -0.800865         0.476942
 H         1.709897        -2.272402        -0.316490
 H         1.140937        -1.450723         1.274040
