19
Iteration:  3938charge 0 multiplicity 1
 C         0.086702         0.371050        -0.219613
 C         1.547716        -0.025470        -0.033622
 C         2.348233        -0.188541        -1.395241
 C         3.756800         0.243097        -1.058090
 C         3.524166         0.861349         0.338737
 O         2.175210         1.074679         0.734384
 C         4.060645        -0.584353         0.236297
 O         3.182434        -1.739964         0.375756
 C         1.828433        -1.346788         0.590375
 H         0.027853         1.494288        -0.523690
 H        -0.410041        -0.290022        -0.953006
 H        -0.432567         0.440365         0.743795
 H         2.327691        -1.173074        -1.696659
 H         1.789160         0.361381        -2.161240
 H         4.313919         0.774443        -1.811810
 H         4.258462         1.662700         0.769359
 H         5.083786        -0.771506         0.469397
 H         1.156401        -2.053726         0.132527
 H         1.753215        -1.383688         1.643526
