19
Iteration:  4140
 C         0.047760         0.261209        -0.087877
 C         1.559211        -0.052572        -0.095774
 C         2.342810        -0.089370        -1.470953
 C         3.790687         0.255301        -1.076787
 C         3.572528         0.840399         0.321216
 O         2.203437         1.089669         0.523492
 C         4.028605        -0.617992         0.273479
 O         3.120182        -1.709730         0.425226
 C         1.854525        -1.322878         0.717771
 H        -0.542113        -0.210839         0.707932
 H        -0.002554         1.447779         0.090142
 H        -0.468460         0.110525        -1.120649
 H         2.275459        -1.109060        -1.967094
 H         2.043523         0.608298        -2.232179
 H         4.540592         0.636098        -1.710459
 H         4.114891         1.642839         0.934252
 H         4.967156        -0.920010         0.655362
 H         1.154387        -2.177213         0.643825
 H         1.807574        -1.014840         1.716829
