19
Iteration:  4507
 C         0.000126         0.337428        -0.199483
 C         1.485331         0.017928        -0.147760
 C         2.236920        -0.132943        -1.403176
 C         3.669752         0.059941        -1.030170
 C         3.613752         0.890408         0.239697
 O         2.195593         1.149188         0.500056
 C         4.150466        -0.614678         0.271139
 O         3.280372        -1.655258         0.623664
 C         1.877266        -1.412951         0.701045
 H        -0.290103         0.766050        -1.162218
 H        -0.583544        -0.541917        -0.218939
 H        -0.243852         1.171270         0.549877
 H         1.974831        -1.093183        -1.828154
 H         2.030721         0.734616        -2.049253
 H         4.481904         0.462526        -1.737090
 H         4.193968         1.719796         0.471779
 H         5.177698        -0.854940         0.679631
 H         1.177723        -2.181669         0.301887
 H         1.489390        -1.441654         1.717399
