19
Iteration:  1004
 C         0.034526         0.368159        -0.157103
 C         1.519023         0.104380        -0.177488
 C         2.471530         1.312266        -0.247115
 C         3.821484         0.780378         0.289915
 C         3.300781        -0.369574         1.198006
 O         1.952266        -0.403580         1.158476
 C         4.062107        -0.686820        -0.002626
 O         3.392784        -1.398892        -1.071776
 C         1.924930        -0.948969        -1.204072
 H        -0.329354         0.379272         0.882322
 H        -0.229144         1.259710        -0.634845
 H        -0.553575        -0.360351        -0.682475
 H         2.773270         1.677113        -1.284276
 H         2.158866         2.236138         0.195535
 H         4.564450         1.458540         0.756157
 H         3.692089        -0.700149         2.101879
 H         5.071129        -1.073060         0.141198
 H         1.921877        -0.554498        -2.231729
 H         1.216408        -1.861092        -1.170139
