19
Iteration:  4869charge 0 multiplicity 1
 C         0.020546         0.284815        -0.057196
 C         1.529053        -0.003215        -0.173524
 C         2.214127        -0.086935        -1.526994
 C         3.686478         0.074315        -1.040926
 C         3.645061         0.892360         0.202620
 O         2.284000         1.174917         0.431579
 C         4.059122        -0.664650         0.199667
 O         3.230482        -1.560966         0.938635
 C         1.817740        -1.427308         0.572992
 H        -0.213813         1.209615         0.333755
 H        -0.438460         0.349662        -1.127376
 H        -0.438078        -0.566046         0.457663
 H         2.086406        -1.022368        -2.154789
 H         1.835192         0.776601        -2.089516
 H         4.352981         0.127459        -1.960926
 H         4.346583         1.672200         0.392286
 H         5.129320        -0.931676         0.482641
 H         1.485444        -2.388261        -0.082189
 H         1.384439        -1.488777         1.595162
