19
Iteration:  4007
 C         0.072177         0.239232        -0.125201
 C         1.585478        -0.040598        -0.187045
 C         2.223321         0.140759        -1.539122
 C         3.686240         0.074752        -1.121096
 C         3.627500         0.860288         0.383027
 O         2.256794         1.046238         0.601154
 C         3.993033        -0.591140         0.264566
 O         3.197830        -1.681098         0.726819
 C         1.860256        -1.364848         0.539882
 H        -0.119393         0.918980         0.706908
 H        -0.266300         0.555682        -1.107531
 H        -0.489544        -0.733800         0.296541
 H         1.928392        -0.621121        -2.321507
 H         2.034529         1.086582        -1.972019
 H         4.593592         0.352957        -1.722427
 H         4.210288         1.661412         0.705600
 H         5.048048        -0.988422         0.279939
 H         1.361241        -2.143567        -0.222772
 H         1.275124        -1.368703         1.417223
