19
Iteration:  4905charge 0 multiplicity 1
 C         0.063350         0.319110        -0.205119
 C         1.512831        -0.087887        -0.153634
 C         2.222203        -0.194069        -1.517822
 C         3.695973         0.087657        -1.090651
 C         3.606813         0.869260         0.196060
 O         2.272964         1.008132         0.639578
 C         4.125085        -0.557996         0.217662
 O         3.184358        -1.557549         0.676661
 C         1.811130        -1.277080         0.742742
 H        -0.047190         1.445501         0.060647
 H        -0.399908         0.122263        -1.177852
 H        -0.456269        -0.220515         0.534739
 H         2.161755        -1.145625        -2.161550
 H         2.098798         0.698687        -2.166749
 H         4.430006         0.296335        -1.846916
 H         4.164016         1.853047         0.398595
 H         5.099204        -0.776714         0.561999
 H         1.132537        -2.235520         0.651292
 H         1.476751        -0.773679         1.699105
