19
Iteration:  3620
 C         0.070659         0.249332        -0.185719
 C         1.514633        -0.047290        -0.159539
 C         2.274013         0.328962        -1.477918
 C         3.717741         0.269100        -0.980962
 C         3.610125         0.840328         0.425308
 O         2.276653         0.876335         0.760270
 C         4.069151        -0.652492         0.197584
 O         3.179520        -1.734864         0.650714
 C         1.791498        -1.440256         0.279771
 H        -0.208692         0.538801        -1.177100
 H        -0.425365        -0.753779         0.182615
 H        -0.238087         0.944980         0.544329
 H         1.787378        -0.179765        -2.326107
 H         2.088700         1.489500        -1.610097
 H         4.509857         0.524306        -1.679297
 H         4.254852         1.655667         0.947616
 H         5.065511        -0.880999         0.449930
 H         1.480257        -2.084954        -0.448787
 H         1.239163        -1.714986         1.247255
