19
Iteration:    49charge 0 multiplicity 1
 C         0.131702         0.361525        -0.184652
 C         1.633046         0.139793        -0.077682
 C         2.439345         1.282363         0.529648
 C         3.708427         0.539076         0.762488
 C         3.217157        -0.888919         1.105536
 O         1.905707        -1.012256         0.737662
 C         3.962623        -0.657269        -0.122526
 O         3.370085        -0.902497        -1.399249
 C         2.104271        -0.167920        -1.459984
 H        -0.350427        -0.632096        -0.092518
 H        -0.361170         1.089387         0.472863
 H         0.010628         0.785204        -1.226556
 H         2.405774         2.232400        -0.045812
 H         1.926703         1.524716         1.510066
 H         4.584114         0.893464         1.356603
 H         3.568118        -1.332190         2.036991
 H         5.077251        -0.862456        -0.217014
 H         2.369744         0.779510        -1.959651
 H         1.413584        -0.815894        -2.051647
