19
Iteration:   333
 C         0.057678         0.388910        -0.115822
 C         1.546410         0.158487        -0.119397
 C         2.576077         1.282041         0.086974
 C         3.750226         0.570499         0.691776
 C         3.181008        -0.698518         1.140400
 O         1.773757        -0.809195         1.011436
 C         4.013331        -0.686569        -0.091160
 O         3.496525        -0.800503        -1.392146
 C         2.077347        -0.661350        -1.373041
 H        -0.221955         0.435001         0.976220
 H        -0.182209         1.348376        -0.618703
 H        -0.474476        -0.436417        -0.606166
 H         2.890967         1.766781        -0.814615
 H         2.168316         2.018031         0.723381
 H         4.516248         1.113621         1.320641
 H         3.562622        -1.246740         2.035195
 H         4.967657        -1.281869        -0.064893
 H         1.797512        -0.197760        -2.379925
 H         1.641500        -1.658848        -1.277040
