19
Iteration:  4635
 C        -0.031475         0.334488        -0.114599
 C         1.509382        -0.086617        -0.179713
 C         2.322096        -0.094415        -1.539233
 C         3.694672         0.064456        -1.141679
 C         3.605015         0.840721         0.111654
 O         2.273496         0.901493         0.565178
 C         4.104176        -0.639036         0.156500
 O         3.218347        -1.334727         0.997873
 C         1.783929        -1.391795         0.583801
 H         0.085856         0.920457         0.938505
 H        -0.477291         1.142802        -0.649067
 H        -0.668833        -0.535450        -0.022200
 H         2.171863        -0.990735        -2.121703
 H         2.035416         0.726276        -2.304215
 H         4.473796         0.301666        -1.927488
 H         4.142661         1.665230         0.442352
 H         5.119972        -0.753942         0.608915
 H         1.587021        -2.243925        -0.058536
 H         1.232198        -1.249540         1.452885
