19
Iteration:  2526charge 0 multiplicity 1
 C         0.038987         0.347736        -0.275689
 C         1.552521        -0.053132        -0.162640
 C         2.478361         0.842768        -1.130880
 C         3.858479         0.739771        -0.381220
 C         3.405100         0.293816         1.060242
 O         2.006676         0.461087         1.141239
 C         4.042759        -0.687353         0.073608
 O         3.280775        -1.703226        -0.562749
 C         1.885103        -1.510944        -0.121382
 H        -0.274936         0.816248         0.709095
 H        -0.268075         1.056845        -1.062819
 H        -0.754361        -0.472589        -0.337664
 H         2.428723         0.573729        -2.218550
 H         2.220807         1.886213        -1.167631
 H         4.663854         1.431467        -0.664371
 H         3.735917         0.272177         2.098169
 H         4.934146        -1.149310         0.333520
 H         1.211941        -2.026866        -0.804323
 H         1.789789        -1.824055         0.978084
