19
Iteration:  2949charge 0 multiplicity 1
 C         0.041697         0.371126        -0.238988
 C         1.507210        -0.035291        -0.174490
 C         2.376781         0.649640        -1.263557
 C         3.827904         0.584590        -0.598547
 C         3.486209         0.524800         0.886285
 O         2.066600         0.647912         0.953877
 C         4.052813        -0.653736         0.140493
 O         3.272288        -1.822491        -0.197683
 C         1.898902        -1.574438         0.112117
 H        -0.051717         1.430030         0.153837
 H        -0.451469         0.361855        -1.249572
 H        -0.577720        -0.193355         0.399194
 H         2.222497         0.105658        -2.133533
 H         2.020774         1.778950        -1.457752
 H         4.570106         1.218327        -1.007337
 H         4.007161         1.152358         1.632344
 H         5.050631        -1.001126         0.206441
 H         1.360082        -2.372305        -0.438691
 H         1.552631        -1.726163         1.305858
