19
Iteration:    14
 C         0.007122         0.468684        -0.138795
 C         1.514100         0.088962        -0.089159
 C         2.405458         1.173404         0.462432
 C         3.713982         0.449024         0.791817
 C         3.236093        -0.978138         0.978023
 O         1.806941        -0.904011         0.896762
 C         4.102082        -0.633103        -0.175910
 O         3.555929        -0.740028        -1.455268
 C         2.145239        -0.271283        -1.434791
 H        -0.475144         0.270123         0.707766
 H        -0.113589         1.547919        -0.407938
 H        -0.461565        -0.167780        -0.944195
 H         2.470907         2.051811        -0.117660
 H         1.859087         1.356408         1.425847
 H         4.437806         0.786854         1.590280
 H         3.498790        -1.569900         1.889319
 H         5.247404        -0.939865        -0.166911
 H         2.097453         0.688133        -1.925728
 H         1.564818        -0.951734        -2.006519
