19
Iteration:  3067
 C        -0.014249         0.297078        -0.200081
 C         1.511484         0.079455        -0.081413
 C         2.394891         0.510747        -1.328945
 C         3.782468         0.582830        -0.758634
 C         3.573028         0.548244         0.738249
 O         2.118610         0.588807         1.063457
 C         4.107677        -0.634417         0.085865
 O         3.234257        -1.715437         0.195772
 C         1.787877        -1.477439        -0.073877
 H        -0.582593        -0.649740        -0.546057
 H        -0.579548         0.753255         0.711027
 H        -0.228077         0.938057        -1.045339
 H         2.367224        -0.224513        -2.154620
 H         2.255943         1.578578        -1.711070
 H         4.635158         1.066898        -1.182057
 H         4.168201         1.117208         1.515665
 H         5.101618        -0.961249         0.238507
 H         1.578360        -1.923829        -1.200782
 H         1.340842        -2.175895         0.545997
