19
Iteration:  1400charge 0 multiplicity 1
 C         0.041883         0.297771        -0.344415
 C         1.566602         0.080076        -0.128845
 C         2.467937         1.279019        -0.532372
 C         3.822332         0.809393         0.091558
 C         3.434196        -0.104195         1.226571
 O         2.041416        -0.236036         1.263881
 C         3.982913        -0.677940        -0.028883
 O         3.266868        -1.546488        -0.821257
 C         1.874324        -1.141130        -0.963872
 H        -0.193853         1.222268        -0.860893
 H        -0.388274        -0.495593        -0.944565
 H        -0.419956         0.552561         0.630484
 H         2.474263         1.666782        -1.597302
 H         2.150146         2.156097         0.161642
 H         4.682228         1.492862         0.127350
 H         3.930626        -0.134803         2.240713
 H         5.088609        -0.983449         0.034080
 H         1.617012        -1.129889        -2.067162
 H         1.263811        -2.001354        -0.774995
