19
Iteration:  2282charge 0 multiplicity 1
 C         0.080924         0.276867        -0.204317
 C         1.589885         0.100436        -0.156015
 C         2.462811         1.002976        -1.015424
 C         3.825741         0.744064        -0.282278
 C         3.432550         0.262177         1.118111
 O         1.963377         0.191604         1.216779
 C         4.028647        -0.678593         0.069779
 O         3.251348        -1.742775        -0.485199
 C         1.870334        -1.349190        -0.549482
 H        -0.221068         1.148306         0.338343
 H        -0.306319         0.313662        -1.244298
 H        -0.452372        -0.578632         0.331216
 H         2.600042         0.658887        -2.123244
 H         2.326613         2.027161        -0.835776
 H         4.672016         1.369950        -0.545727
 H         4.036470         0.503999         1.941133
 H         5.035851        -0.969389         0.122413
 H         1.543726        -1.634221        -1.609766
 H         1.254759        -1.970964         0.032291
