19
Iteration:   502charge 0 multiplicity 1
 C         0.055052         0.466404        -0.207742
 C         1.535756         0.098418        -0.134235
 C         2.420898         1.352762         0.087855
 C         3.760331         0.685492         0.531948
 C         3.305948        -0.606526         1.221230
 O         1.901705        -0.793947         1.024222
 C         4.030572        -0.666093        -0.098775
 O         3.393322        -1.192438        -1.220060
 C         2.072453        -0.597932        -1.393067
 H        -0.086548         1.170036         0.596804
 H        -0.230210         0.752139        -1.222866
 H        -0.464036        -0.396262         0.215573
 H         2.464885         2.162529        -0.686311
 H         2.046953         1.739421         1.011458
 H         4.653606         1.291198         0.866489
 H         3.591462        -0.972043         2.240086
 H         5.081325        -0.883859        -0.116899
 H         2.087630        -0.095288        -2.374921
 H         1.379339        -1.444906        -1.637480
