19
Iteration:   158charge 0 multiplicity 1
 C         0.129999         0.546568        -0.262205
 C         1.560184         0.127887        -0.074209
 C         2.540181         1.245363         0.269345
 C         3.677398         0.470679         0.824247
 C         3.177613        -0.974930         1.030372
 O         1.800078        -0.945175         0.989918
 C         4.057695        -0.619751        -0.186565
 O         3.465140        -0.501204        -1.429922
 C         2.057061        -0.649186        -1.290116
 H        -0.239395         1.267123         0.424023
 H         0.034503         0.733489        -1.306055
 H        -0.407575        -0.403086        -0.112511
 H         2.925694         1.796027        -0.608377
 H         2.131071         1.856553         1.078479
 H         4.261463         0.982215         1.554065
 H         3.634341        -1.588854         1.780489
 H         5.044510        -0.974174        -0.214593
 H         1.609954        -0.251632        -2.184865
 H         1.775181        -1.684832        -1.261365
