19
Iteration:  3134
 C        -0.043628         0.352368        -0.200746
 C         1.487805         0.039078        -0.164717
 C         2.424540         0.421953        -1.315288
 C         3.800870         0.535976        -0.667807
 C         3.485293         0.565442         0.811777
 O         2.056409         0.836484         0.940348
 C         4.083060        -0.718215         0.202902
 O         3.306463        -1.835565        -0.138176
 C         1.901266        -1.470149         0.164686
 H        -0.481129         0.838316        -1.192381
 H        -0.548005        -0.657377         0.003968
 H        -0.235118         0.935050         0.691567
 H         2.317745        -0.270656        -2.115867
 H         2.135016         1.416049        -1.860440
 H         4.570572         1.040693        -1.323811
 H         4.140497         1.079019         1.533170
 H         5.130082        -0.849745         0.517463
 H         1.197524        -2.329019        -0.387913
 H         1.718435        -1.562778         1.202572
