19
Iteration:   161
 C         0.143265         0.529294        -0.273340
 C         1.556107         0.109928        -0.070844
 C         2.536026         1.252536         0.272006
 C         3.676068         0.452303         0.786238
 C         3.181101        -0.969693         1.037626
 O         1.795226        -0.932738         0.999573
 C         4.057092        -0.630808        -0.171691
 O         3.474907        -0.476084        -1.427590
 C         2.057311        -0.666791        -1.289146
 H        -0.232660         1.228711         0.602249
 H         0.009277         0.914081        -1.310235
 H        -0.372183        -0.390008        -0.214693
 H         2.929383         1.863617        -0.654826
 H         2.095162         1.882005         1.090123
 H         4.270747         1.064238         1.461163
 H         3.568045        -1.683046         1.807741
 H         5.041595        -1.018902        -0.188495
 H         1.595450        -0.118418        -2.135567
 H         1.705400        -1.773143        -1.259903
