19
Iteration:  1641
 C        -0.007424         0.273733        -0.241599
 C         1.547792         0.097656        -0.198238
 C         2.431768         1.307949        -0.590105
 C         3.792511         0.794879        -0.025670
 C         3.516325         0.010199         1.167932
 O         2.073027        -0.204417         1.202471
 C         4.102418        -0.732511        -0.047968
 O         3.118267        -1.728483        -0.472242
 C         1.971022        -1.080855        -1.088637
 H        -0.589405        -0.619291        -0.223399
 H        -0.574526         0.921309         0.500261
 H        -0.226591         0.737881        -1.271655
 H         2.381682         1.689962        -1.562782
 H         2.122254         2.208809         0.046622
 H         4.560079         1.655943        -0.033291
 H         3.892315         0.201430         2.220256
 H         5.103714        -1.058858        -0.114111
 H         2.274381        -0.701404        -1.935222
 H         1.160821        -1.829260        -1.143135
