19
Iteration:  4377
 C         0.027848         0.243438        -0.083071
 C         1.511338        -0.042906        -0.159403
 C         2.404546        -0.116540        -1.600397
 C         3.726098         0.177525        -1.052839
 C         3.597939         0.884587         0.338371
 O         2.249756         0.959068         0.637602
 C         4.068125        -0.590264         0.210925
 O         3.139121        -1.593655         0.588931
 C         1.813179        -1.236041         0.612298
 H        -0.450016        -0.644669         0.395621
 H        -0.175984         1.096253         0.578808
 H        -0.538872         0.401735        -1.119179
 H         2.041921        -1.083662        -2.000882
 H         2.111380         0.657060        -2.296469
 H         4.583591         0.554715        -1.659497
 H         4.132010         1.758600         0.733946
 H         5.007242        -0.965203         0.595570
 H         1.198656        -2.067019         0.231875
 H         1.505339        -1.008265         1.604169
