19
Iteration:  2873charge 0 multiplicity 1
 C         0.066951         0.300421        -0.193527
 C         1.560582         0.032468        -0.138467
 C         2.369934         0.768119        -1.267921
 C         3.793414         0.584678        -0.652679
 C         3.488416         0.500305         0.807928
 O         2.073202         0.554849         1.087821
 C         4.065805        -0.679284         0.140235
 O         3.268857        -1.832633         0.007742
 C         1.844450        -1.492901        -0.183104
 H        -0.324937         0.093315        -1.232561
 H        -0.486470        -0.301571         0.565651
 H        -0.331287         1.242614         0.045070
 H         2.245276         0.287731        -2.178310
 H         2.204854         1.852646        -1.483485
 H         4.505058         1.308801        -0.954289
 H         4.001008         1.076106         1.534891
 H         5.092476        -1.038038         0.307438
 H         1.478296        -2.050891        -1.061943
 H         1.291818        -1.831323         0.662128
