19
Iteration:    47charge 0 multiplicity 1
 C         0.128849         0.361425        -0.176559
 C         1.618792         0.146843        -0.074294
 C         2.441506         1.291718         0.547927
 C         3.713784         0.541811         0.750406
 C         3.222505        -0.883604         1.106075
 O         1.895966        -1.033449         0.759148
 C         3.932733        -0.653526        -0.121888
 O         3.388233        -0.899905        -1.414506
 C         2.134630        -0.177766        -1.482596
 H        -0.378723        -0.492967        -0.067559
 H        -0.361438         1.149803         0.418980
 H        -0.013693         0.692930        -1.257912
 H         2.396089         2.175280        -0.036179
 H         1.901010         1.511900         1.503098
 H         4.620388         0.914762         1.318227
 H         3.574597        -1.364051         2.054570
 H         5.087082        -0.871479        -0.220985
 H         2.318142         0.787330        -1.972869
 H         1.412350        -0.763695        -2.010121
