19
Iteration:  3074charge 0 multiplicity 1
 C         0.001888         0.262454        -0.237616
 C         1.486788         0.078026        -0.064924
 C         2.455471         0.528795        -1.377152
 C         3.752064         0.550091        -0.723431
 C         3.589363         0.605316         0.779128
 O         2.153834         0.580424         1.087266
 C         4.081766        -0.603947         0.060303
 O         3.204136        -1.712711         0.138185
 C         1.772470        -1.487393        -0.041186
 H        -0.443486        -0.573728        -0.677881
 H        -0.541415         0.499558         0.692541
 H        -0.162221         1.095922        -1.033374
 H         2.364662        -0.374457        -2.110971
 H         2.178269         1.469488        -1.662369
 H         4.580160         1.049547        -1.194161
 H         4.147819         1.108517         1.504456
 H         5.121618        -0.987344         0.152388
 H         1.472729        -1.894837        -0.983406
 H         1.298118        -2.103970         0.853867
