19
Iteration:  1418charge 0 multiplicity 1
 C         0.051987         0.302229        -0.255668
 C         1.515639         0.103670        -0.209082
 C         2.415744         1.340159        -0.361206
 C         3.817587         0.876604        -0.001582
 C         3.451864        -0.108457         1.193516
 O         1.984560        -0.181368         1.130367
 C         4.088499        -0.715704        -0.024335
 O         3.248255        -1.692638        -0.680670
 C         1.965894        -1.156287        -1.064955
 H        -0.362311         1.336402        -0.542703
 H        -0.474890        -0.401868        -0.913434
 H        -0.384160         0.244650         0.729974
 H         2.494195         1.600592        -1.388707
 H         2.209700         2.167192         0.334556
 H         4.706097         1.571439         0.143828
 H         3.839650        -0.047689         2.224560
 H         5.044793        -1.106949        -0.127904
 H         1.905363        -0.916788        -2.146206
 H         1.029630        -1.831700        -0.963847
