19
Iteration:  1016
 C         0.010829         0.290865        -0.182949
 C         1.583864         0.149790        -0.131106
 C         2.533035         1.413410        -0.229579
 C         3.780026         0.765157         0.277110
 C         3.375959        -0.334761         1.209910
 O         1.879813        -0.381544         1.153601
 C         4.069246        -0.751012        -0.073212
 O         3.294555        -1.453415        -0.990407
 C         2.007067        -0.916195        -1.272100
 H        -0.414485         0.071392         0.806226
 H        -0.247334         1.212204        -0.454439
 H        -0.323940        -0.455749        -0.864649
 H         2.404476         1.886851        -1.230285
 H         2.165472         1.935203         0.648260
 H         4.620098         1.474856         0.399168
 H         3.742868        -0.409066         2.204689
 H         5.098576        -1.194909         0.080159
 H         1.938441        -0.382278        -2.245706
 H         1.322340        -1.845608        -1.275193
