19
Iteration:  3942charge 0 multiplicity 1
 C         0.110090         0.339991        -0.237662
 C         1.561095        -0.018150        -0.035908
 C         2.328894        -0.146325        -1.365531
 C         3.746448         0.232005        -1.060116
 C         3.520557         0.857943         0.323493
 O         2.205551         1.055619         0.731032
 C         4.029271        -0.578353         0.224724
 O         3.174816        -1.739998         0.368471
 C         1.844283        -1.304251         0.599796
 H         0.050895         1.390478        -0.433944
 H        -0.358717        -0.168758        -1.054310
 H        -0.434999         0.307149         0.758603
 H         2.328866        -1.283031        -1.559480
 H         1.781324         0.350050        -2.147484
 H         4.372592         0.820757        -1.760346
 H         4.124536         1.644593         0.675242
 H         5.033312        -0.785438         0.609687
 H         1.147110        -2.144161         0.121319
 H         1.605954        -1.393142         1.691474
