19
Iteration:  1628charge 0 multiplicity 1
 C         0.075872         0.296439        -0.227681
 C         1.557601         0.102892        -0.097132
 C         2.416974         1.327066        -0.574537
 C         3.776338         0.824155        -0.119733
 C         3.420398        -0.017929         1.152887
 O         2.045934        -0.271179         1.177644
 C         3.985517        -0.701721        -0.000859
 O         3.155083        -1.675292        -0.498837
 C         2.033851        -1.056972        -1.042012
 H        -0.444566        -0.651703         0.126561
 H        -0.178234         1.244934         0.233567
 H        -0.085023         0.401352        -1.342158
 H         2.337469         1.242827        -1.632173
 H         2.112414         2.317924        -0.083797
 H         4.779541         1.217301        -0.122160
 H         3.926197         0.033605         2.107938
 H         5.020630        -1.040863        -0.093819
 H         2.200317        -0.729339        -2.003323
 H         1.328612        -1.840026        -1.263792
