19
Iteration:  4145
 C         0.018354         0.317777        -0.106872
 C         1.542014        -0.110010        -0.107768
 C         2.329852        -0.080558        -1.455442
 C         3.835504         0.253281        -1.022076
 C         3.560120         0.850951         0.338186
 O         2.186483         1.080565         0.502986
 C         4.021539        -0.609020         0.227079
 O         3.173859        -1.721172         0.441816
 C         1.846596        -1.329556         0.715487
 H        -0.586934        -0.079142         0.757751
 H         0.169341         1.338346        -0.018454
 H        -0.577393         0.149013        -0.939675
 H         2.251375        -1.016333        -1.952829
 H         1.877458         0.673708        -2.205943
 H         4.612331         0.590970        -1.791273
 H         4.107779         1.634935         0.766231
 H         5.007549        -0.968902         0.645010
 H         1.070917        -2.118802         0.557898
 H         1.877324        -1.087736         1.871822
