19
Iteration:  1128charge 0 multiplicity 1
 C         0.039737         0.418967        -0.222189
 C         1.552567         0.015294        -0.125064
 C         2.543142         1.204015        -0.480567
 C         3.823222         0.767638         0.334907
 C         3.279399        -0.355509         1.270600
 O         1.875292        -0.311314         1.267131
 C         4.053847        -0.697858        -0.044663
 O         3.360468        -1.152751        -1.186965
 C         1.968504        -1.156093        -0.994032
 H        -0.124682         0.748624        -1.255771
 H        -0.694629        -0.346021        -0.008518
 H        -0.114252         1.346549         0.355782
 H         2.716248         1.129310        -1.638621
 H         2.136951         2.259912        -0.138945
 H         4.647260         1.396160         0.651492
 H         3.771092        -0.741866         2.189108
 H         5.036009        -1.146097        -0.025842
 H         1.454492        -1.116278        -2.009019
 H         1.690470        -2.110452        -0.412715
