19
Iteration:  3129charge 0 multiplicity 1
 C        -0.048965         0.353781        -0.208101
 C         1.446738         0.047500        -0.179971
 C         2.459381         0.433897        -1.304817
 C         3.821691         0.526806        -0.691464
 C         3.471705         0.546379         0.841601
 O         2.029348         0.845225         0.933922
 C         4.080334        -0.695127         0.159956
 O         3.298144        -1.832567        -0.127793
 C         1.931120        -1.514872         0.173690
 H        -0.365960         0.688555        -1.122102
 H        -0.573902        -0.546285         0.112559
 H        -0.098817         1.058796         0.660554
 H         2.255564        -0.206376        -2.247328
 H         2.064879         1.349325        -1.628785
 H         4.649228         0.930408        -1.218109
 H         4.138792         1.089847         1.527333
 H         5.121635        -0.860039         0.421307
 H         1.325796        -2.120418        -0.332638
 H         1.718341        -1.595863         1.308313
