19
Iteration:  1377charge 0 multiplicity 1
 C         0.076636         0.394913        -0.231194
 C         1.595876         0.056687        -0.070736
 C         2.500063         1.160083        -0.599358
 C         3.808993         0.795088         0.111709
 C         3.313232        -0.136525         1.202618
 O         1.868709        -0.234836         1.289440
 C         4.082190        -0.726480        -0.004927
 O         3.332221        -1.393292        -1.023995
 C         1.958902        -1.154054        -0.849444
 H        -0.129339         1.039364        -1.120092
 H        -0.357275        -0.515358        -0.534193
 H        -0.365705         0.941496         0.596314
 H         2.581555         1.004389        -1.687182
 H         2.018044         2.215945        -0.460718
 H         4.616661         1.575687         0.048037
 H         3.758325        -0.164583         2.231346
 H         5.109414        -1.067104         0.168485
 H         1.434051        -1.241081        -1.856708
 H         1.506719        -2.067540        -0.470568
