19
Iteration:  1446
 C         0.086059         0.328427        -0.078954
 C         1.539229         0.067843        -0.209090
 C         2.425787         1.316752        -0.583011
 C         3.749999         0.807823        -0.050175
 C         3.366628        -0.036495         1.214225
 O         1.967040        -0.313220         1.175408
 C         4.012166        -0.736310         0.079166
 O         3.234608        -1.649925        -0.668760
 C         2.101010        -1.016315        -1.119660
 H        -0.198270         1.333808         0.087666
 H        -0.454138         0.041383        -1.035116
 H        -0.376825        -0.147652         0.831031
 H         2.593516         1.469699        -1.739034
 H         2.205099         2.260273        -0.049842
 H         4.653930         1.379295        -0.103248
 H         3.781315         0.082039         2.178611
 H         5.030368        -1.203773         0.063276
 H         2.271294        -0.579041        -2.147105
 H         1.310327        -1.672438        -1.351885
