19
Iteration:  2683charge 0 multiplicity 1
 C         0.021698         0.354862        -0.168246
 C         1.558884         0.043411        -0.216754
 C         2.409775         0.799743        -1.195277
 C         3.829409         0.639491        -0.547477
 C         3.382976         0.434055         0.914041
 O         2.012647         0.400804         1.115894
 C         4.094667        -0.655056         0.121147
 O         3.313554        -1.831894        -0.191065
 C         1.866930        -1.466882        -0.247376
 H        -0.257336         1.152370        -0.861036
 H        -0.591251        -0.561623        -0.272037
 H         0.018440         0.799595         0.902013
 H         2.402569         0.471606        -2.158109
 H         2.194772         1.979662        -1.145577
 H         4.633349         1.329762        -0.746926
 H         3.898052         1.053610         1.610671
 H         5.107494        -0.977511         0.302045
 H         1.422857        -1.947153        -1.090292
 H         1.399302        -1.845841         0.615241
