19
Iteration:  1981
 C         0.149112         0.322060        -0.252684
 C         1.628751         0.049349        -0.132454
 C         2.425121         1.188401        -0.833670
 C         3.777885         0.831221        -0.208624
 C         3.408310         0.088252         1.202299
 O         2.023630        -0.074803         1.294685
 C         4.032127        -0.655921         0.073464
 O         3.235154        -1.677577        -0.639687
 C         1.828913        -1.295220        -0.785709
 H        -0.178304         0.217081        -1.327824
 H        -0.392258        -0.306680         0.450098
 H        -0.087319         1.325866        -0.015041
 H         2.384805         1.092631        -1.902352
 H         2.105095         2.224293        -0.390012
 H         4.604791         1.581849        -0.257347
 H         3.982759         0.160710         2.205116
 H         5.044393        -0.985770         0.203967
 H         1.577876        -1.202327        -1.898598
 H         1.233201        -2.063658        -0.425877
