19
Iteration:   408charge 0 multiplicity 1
 C         0.097602         0.404367        -0.250575
 C         1.558336         0.124202        -0.047354
 C         2.527337         1.295181         0.099580
 C         3.727417         0.593952         0.611190
 C         3.275855        -0.714431         1.160948
 O         1.825015        -0.763886         1.092835
 C         4.028552        -0.642701        -0.130410
 O         3.450372        -0.953254        -1.318321
 C         2.000124        -0.617099        -1.320636
 H        -0.177174         0.208433        -1.283065
 H        -0.460629        -0.230385         0.377856
 H        -0.134309         1.508456        -0.228086
 H         2.623528         1.710799        -0.873521
 H         2.184995         2.088778         0.788264
 H         4.551463         1.253496         0.989752
 H         3.629648        -1.282827         2.018403
 H         5.094251        -1.013869        -0.177612
 H         1.635833        -0.150604        -2.281085
 H         1.480902        -1.598743        -1.345006
