19
Iteration:  2723
 C         0.068069         0.295803        -0.262811
 C         1.514432        -0.010927        -0.081354
 C         2.487255         0.592258        -1.160626
 C         3.828277         0.725424        -0.474835
 C         3.481043         0.436453         0.970461
 O         2.031781         0.577329         1.152207
 C         4.082629        -0.649382         0.033729
 O         3.207232        -1.704814        -0.403882
 C         1.837864        -1.496116        -0.109079
 H        -0.128909         1.357449        -0.144679
 H        -0.335905         0.107584        -1.226025
 H        -0.586557        -0.348171         0.378905
 H         2.463872        -0.228774        -1.975297
 H         2.107956         1.517064        -1.483667
 H         4.581934         1.447234        -0.731757
 H         4.057440         0.786107         1.804156
 H         5.090892        -0.985530         0.371331
 H         1.275826        -1.916413        -0.946568
 H         1.474232        -2.049491         0.867623
