19
Iteration:  1493charge 0 multiplicity 1
 C         0.096876         0.339345        -0.235670
 C         1.616836         0.124315        -0.183462
 C         2.511849         1.316082        -0.568348
 C         3.786081         0.844303         0.046662
 C         3.333756        -0.101055         1.213451
 O         1.946299        -0.226198         1.171067
 C         4.006733        -0.711369         0.030078
 O         3.342930        -1.574090        -0.844471
 C         1.904856        -1.201548        -0.916021
 H        -0.192174         0.674706         0.828555
 H        -0.331481         1.145024        -0.919480
 H        -0.524246        -0.596789        -0.254251
 H         2.332984         1.301815        -1.756827
 H         2.067017         2.242475        -0.166265
 H         4.750596         1.425725         0.137876
 H         3.797066        -0.182105         2.231784
 H         5.015726        -1.034405         0.155772
 H         1.527182        -1.156079        -1.909986
 H         1.268434        -1.992248        -0.353829
