19
Iteration:  3054charge 0 multiplicity 1
 C        -0.014417         0.337632        -0.170793
 C         1.514887        -0.027130        -0.176715
 C         2.333679         0.594634        -1.314812
 C         3.800102         0.560926        -0.763123
 C         3.531956         0.613314         0.763287
 O         2.152854         0.615546         1.021792
 C         4.089379        -0.668102         0.163363
 O         3.221419        -1.807169         0.244028
 C         1.902294        -1.495639        -0.176785
 H        -0.614014        -0.565065        -0.044872
 H        -0.147129         0.955789         0.796849
 H        -0.336721         0.925281        -1.102354
 H         2.144919        -0.100867        -2.222472
 H         1.912166         1.551152        -1.504572
 H         4.480933         1.196391        -1.265226
 H         4.064439         1.245764         1.445931
 H         5.115953        -0.962218         0.390780
 H         1.727156        -1.887136        -1.299041
 H         1.194442        -1.917544         0.547786
