19
Iteration:  4299charge 0 multiplicity 1
 C         0.104365         0.319660        -0.186327
 C         1.530930        -0.047215        -0.173069
 C         2.334973        -0.099692        -1.590978
 C         3.660926         0.255579        -1.072236
 C         3.587059         0.809965         0.333661
 O         2.232062         0.919331         0.780997
 C         4.003721        -0.565579         0.183043
 O         3.199051        -1.623454         0.580150
 C         1.825907        -1.244258         0.664012
 H        -0.262152         0.501323         0.833221
 H        -0.125736         1.133661        -0.803810
 H        -0.418685        -0.565315        -0.727832
 H         2.222016        -1.119995        -1.946921
 H         1.983927         0.639601        -2.355722
 H         4.478231         0.552828        -1.664905
 H         4.302526         1.547865         0.819816
 H         5.017504        -0.875446         0.315032
 H         1.375643        -2.132047         0.126179
 H         1.377372        -1.173964         1.616400
