19
Iteration:  1426
 C         0.052530         0.309856        -0.205829
 C         1.554121         0.146527        -0.179626
 C         2.421564         1.376247        -0.404805
 C         3.816012         0.798758        -0.025350
 C         3.409429        -0.096778         1.163467
 O         1.963794        -0.223949         1.135812
 C         4.048740        -0.695275        -0.020952
 O         3.265739        -1.734565        -0.644072
 C         1.971805        -1.100718        -1.105676
 H        -0.220355         1.388883        -0.393023
 H        -0.500004        -0.396748        -0.976247
 H        -0.215730         0.067881         0.893139
 H         2.288551         1.827483        -1.536587
 H         2.230626         2.221693         0.243017
 H         4.586870         1.545182         0.153488
 H         3.734389        -0.004087         2.159454
 H         5.100422        -0.928550        -0.009621
 H         2.159512        -0.916711        -2.158072
 H         1.289283        -1.997059        -1.031935
