19
Iteration:  4711
 C         0.046907         0.240117        -0.174489
 C         1.521960        -0.001170        -0.186795
 C         2.249588        -0.202295        -1.514168
 C         3.729134         0.084203        -1.096097
 C         3.584318         0.868690         0.222846
 O         2.264083         1.057408         0.492225
 C         4.044519        -0.569585         0.294497
 O         3.183986        -1.617439         0.625102
 C         1.876921        -1.167250         0.893301
 H        -0.338029        -0.604077         0.595789
 H        -0.274458         1.269450         0.008457
 H        -0.413891         0.095071        -1.160722
 H         2.013305        -1.184342        -1.844067
 H         1.965226         0.505591        -2.327882
 H         4.465939         0.226973        -1.928216
 H         4.306792         1.674506         0.354478
 H         5.087676        -0.826397         0.586232
 H         1.205775        -2.137317         0.621350
 H         1.598040        -0.703913         1.827984
