19
Iteration:  2250charge 0 multiplicity 1
 C         0.004365         0.287324        -0.110725
 C         1.500498         0.057959        -0.214360
 C         2.406366         1.126118        -0.893137
 C         3.870472         0.718772        -0.313560
 C         3.527573         0.280935         1.090839
 O         2.033365         0.206947         1.132234
 C         3.978910        -0.696019         0.127417
 O         3.216704        -1.813103        -0.301734
 C         1.962038        -1.443689        -0.814895
 H        -0.293648         1.272242        -0.509105
 H        -0.539176        -0.455990        -0.756304
 H        -0.349847         0.275864         0.945423
 H         2.347109         1.434429        -2.090499
 H         2.257896         2.131858        -0.503761
 H         4.693609         1.298732        -0.702361
 H         4.016048         0.506631         1.990782
 H         4.992193        -0.929646         0.188040
 H         1.956467        -1.298270        -1.984398
 H         1.332685        -2.168556        -0.445013
