19
Iteration:   304
 C         0.050860         0.313519        -0.194148
 C         1.563183         0.166622        -0.111980
 C         2.518496         1.304353         0.194048
 C         3.747048         0.577215         0.688111
 C         3.283383        -0.731043         1.204626
 O         1.888713        -0.803422         0.954068
 C         4.003128        -0.677265        -0.102120
 O         3.379857        -0.954043        -1.290118
 C         2.012138        -0.472054        -1.460395
 H        -0.171541         1.389493         0.129285
 H        -0.100889         0.203130        -1.319241
 H        -0.483221        -0.449015         0.291566
 H         2.890191         2.082456        -0.612237
 H         2.072942         1.930801         1.037792
 H         4.622375         1.085470         1.062334
 H         3.598839        -1.305142         2.033119
 H         5.062289        -1.080483        -0.115990
 H         2.008815         0.244116        -2.273604
 H         1.477636        -1.418531        -1.628903
