19
Iteration:  4616charge 0 multiplicity 1
 C         0.054919         0.293553        -0.048327
 C         1.522839        -0.022396        -0.162059
 C         2.201134        -0.126238        -1.577138
 C         3.677618         0.046156        -1.155362
 C         3.683769         0.870338         0.218488
 O         2.257684         1.052397         0.496359
 C         4.052817        -0.555739         0.249756
 O         3.174659        -1.493082         0.956689
 C         1.858551        -1.373462         0.552843
 H        -0.137379         1.112245         0.664774
 H        -0.228714         0.521852        -1.049461
 H        -0.519971        -0.678669         0.143252
 H         2.024158        -1.072649        -2.139403
 H         1.923917         0.681057        -2.355775
 H         4.610395         0.126016        -1.733744
 H         4.240408         1.796987         0.459666
 H         5.070796        -0.962812         0.366020
 H         1.671566        -2.160544        -0.191014
 H         1.231080        -1.506506         1.540543
