19
Iteration:  3546
 C         0.087448         0.463526        -0.254630
 C         1.559927        -0.082004        -0.140046
 C         2.328050         0.193143        -1.448922
 C         3.732416         0.344541        -0.918026
 C         3.476846         0.787893         0.565385
 O         2.093661         0.884296         0.823538
 C         4.023971        -0.591449         0.194396
 O         3.301231        -1.835715         0.152897
 C         1.871271        -1.460746         0.581700
 H        -0.630993        -0.381607        -0.455205
 H        -0.220655         0.987891         0.750965
 H         0.019476         1.155169        -1.072314
 H         2.275369        -0.728737        -2.143029
 H         2.100363         1.089605        -1.918259
 H         4.558116         0.566160        -1.600376
 H         4.090108         1.395952         1.343365
 H         5.036900        -0.671166         0.496235
 H         1.238024        -2.388678         0.184149
 H         1.676978        -1.288986         1.706992
