19
Iteration:  4852charge 0 multiplicity 1
 C         0.035306         0.243182        -0.120493
 C         1.517576        -0.070356        -0.073639
 C         2.177121        -0.057629        -1.444891
 C         3.685836        -0.084392        -1.129021
 C         3.663766         0.856542         0.104634
 O         2.294749         1.175258         0.483813
 C         4.047952        -0.514244         0.346126
 O         3.198980        -1.533972         0.878727
 C         1.864470        -1.395646         0.512232
 H         0.011210         1.118887         0.660928
 H        -0.346706         0.377998        -1.106615
 H        -0.669498        -0.411532         0.380417
 H         1.821990        -0.853902        -2.115156
 H         2.061801         0.855813        -2.058538
 H         4.526974         0.042848        -1.770135
 H         4.351198         1.753867         0.250463
 H         5.047836        -0.818131         0.473901
 H         1.658835        -2.006728        -0.271521
 H         1.158623        -1.659221         1.306588
