19
Iteration:  2942
 C         0.014836         0.394779        -0.220348
 C         1.492335        -0.009166        -0.186126
 C         2.429199         0.636471        -1.267750
 C         3.783396         0.577298        -0.596836
 C         3.455138         0.537617         0.929308
 O         2.048778         0.641615         0.972116
 C         4.051517        -0.668378         0.097438
 O         3.295683        -1.821919        -0.218257
 C         1.900138        -1.545611         0.106196
 H         0.036662         1.500143        -0.108864
 H        -0.526551         0.087209        -1.083447
 H        -0.679054        -0.060230         0.601317
 H         2.443360         0.091852        -2.294369
 H         2.081937         1.542571        -1.544812
 H         4.659464         1.099786        -1.055592
 H         4.019210         0.931801         1.816886
 H         5.109309        -0.918144         0.232932
 H         1.354807        -2.507208        -0.245474
 H         1.889417        -1.593784         1.146327
