19
Iteration:   881charge 0 multiplicity 1
 C         0.065675         0.376339        -0.138501
 C         1.553620         0.078400        -0.167874
 C         2.448931         1.384758        -0.175926
 C         3.741048         0.774788         0.373969
 C         3.349648        -0.364027         1.235053
 O         1.920024        -0.590545         1.086555
 C         4.094829        -0.722163        -0.080700
 O         3.271394        -1.417166        -0.996512
 C         2.059485        -0.769370        -1.328659
 H        -0.383778         0.607110        -1.072355
 H        -0.514260        -0.514736         0.150828
 H        -0.182459         1.229788         0.433441
 H         2.557163         1.754143        -1.233951
 H         2.079197         2.155453         0.527498
 H         4.498619         1.505273         0.576891
 H         3.774846        -0.598120         2.256126
 H         5.112006        -1.149585        -0.040063
 H         2.259184        -0.001267        -2.141118
 H         1.392906        -1.638762        -1.649391
