19
Iteration:   101
 C         0.115939         0.363904        -0.057160
 C         1.572536         0.106620        -0.131295
 C         2.408302         1.291343         0.383959
 C         3.696960         0.495975         0.765275
 C         3.142990        -0.842389         1.148247
 O         1.760143        -0.939648         0.835711
 C         4.072022        -0.734499        -0.123559
 O         3.535947        -0.796911        -1.463968
 C         2.151977        -0.259859        -1.495844
 H        -0.288661         0.531058        -0.964581
 H        -0.418654        -0.486650         0.358472
 H        -0.021411         1.226252         0.640593
 H         2.597378         1.964035        -0.395895
 H         2.022151         1.881110         1.215167
 H         4.460694         1.064188         1.364611
 H         3.466473        -1.438481         2.020971
 H         5.125416        -1.234631        -0.121721
 H         2.194103         0.601595        -2.173771
 H         1.611789        -1.040067        -1.936406
