19
Iteration:  1687
 C         0.082907         0.374885        -0.151276
 C         1.565000         0.082502        -0.168855
 C         2.513137         1.194552        -0.699465
 C         3.763558         0.806486        -0.018227
 C         3.331693        -0.004458         1.190777
 O         1.916344        -0.099402         1.257044
 C         4.062656        -0.733136         0.074389
 O         3.330818        -1.627491        -0.837401
 C         1.935975        -1.222568        -0.932977
 H        -0.464101        -0.251060        -0.843869
 H        -0.293992         0.007987         0.860225
 H        -0.242044         1.428159        -0.293196
 H         2.531237         1.140758        -1.837529
 H         2.265117         2.231881        -0.499843
 H         4.670120         1.445160         0.148175
 H         3.789516         0.132784         2.166193
 H         5.099948        -1.095785         0.243589
 H         1.687976        -0.989665        -1.874845
 H         1.359632        -2.054787        -0.452382
