19
Iteration:  3753
 C         0.040408         0.191644        -0.258862
 C         1.524879         0.043651        -0.064003
 C         2.359172         0.165819        -1.385440
 C         3.804181         0.315260        -0.928978
 C         3.594193         0.778842         0.393661
 O         2.192235         1.030463         0.714011
 C         4.052141        -0.691745         0.149654
 O         3.123688        -1.764392         0.287746
 C         1.843113        -1.358509         0.637127
 H        -0.475577         0.524943         0.720543
 H        -0.250443         0.955488        -1.011926
 H        -0.377025        -0.784391        -0.477856
 H         2.163664        -0.755903        -2.073085
 H         1.993958         1.168544        -1.823522
 H         4.549387         0.642967        -1.654923
 H         4.169932         1.402616         0.972754
 H         5.051932        -0.923918         0.652096
 H         1.208147        -2.166371         0.285137
 H         1.716946        -1.278983         1.738662
