19
Iteration:  2296charge 0 multiplicity 1
 C        -0.029635         0.309237        -0.253744
 C         1.501780         0.007772        -0.143934
 C         2.563265         0.939010        -1.004813
 C         3.835824         0.790081        -0.287708
 C         3.465063         0.236689         1.128059
 O         2.092682         0.189455         1.243208
 C         4.030263        -0.670798         0.092621
 O         3.241268        -1.595533        -0.550274
 C         1.813417        -1.442224        -0.509559
 H        -0.368915         1.151616         0.480752
 H        -0.111230         0.763845        -1.286378
 H        -0.639370        -0.529891        -0.189107
 H         2.484367         0.458051        -2.064194
 H         2.093534         1.922320        -1.285531
 H         4.708068         1.421117        -0.408524
 H         3.810598         0.501502         2.152519
 H         5.074567        -1.101480         0.311544
 H         1.355867        -1.724266        -1.495435
 H         1.511394        -2.045408         0.321209
