19
Iteration:  4524
 C         0.012878         0.353564        -0.265971
 C         1.505229        -0.035380         0.004114
 C         2.266361        -0.255949        -1.358067
 C         3.755612         0.127313        -1.062364
 C         3.573815         0.873265         0.248136
 O         2.229345         1.152784         0.525507
 C         4.033092        -0.538106         0.251820
 O         3.256441        -1.699696         0.504661
 C         1.859040        -1.294388         0.746886
 H        -0.045539         1.266820        -0.965023
 H        -0.617781        -0.561599        -0.596517
 H        -0.528567         0.730117         0.575732
 H         2.221671        -1.309510        -1.696842
 H         1.883478         0.446427        -2.165245
 H         4.420478         0.228871        -1.879820
 H         4.283911         1.680253         0.630162
 H         5.068320        -0.689727         0.464513
 H         1.331058        -2.172079         0.380237
 H         1.564506        -1.245475         1.874735
