19
Iteration:  1547charge 0 multiplicity 1
 C         0.095062         0.352039        -0.298776
 C         1.535637         0.032088        -0.096562
 C         2.606171         1.084887        -0.659535
 C         3.777973         0.780628         0.144647
 C         3.345097        -0.116455         1.247640
 O         1.920106        -0.083149         1.298334
 C         4.027874        -0.744237         0.034964
 O         3.272088        -1.241266        -1.120584
 C         1.916993        -1.346694        -0.703236
 H        -0.584129         0.540359         0.532303
 H         0.052831         1.376827        -0.766381
 H        -0.323076        -0.265312        -1.084113
 H         2.708786         0.831298        -1.812390
 H         2.266317         2.097933        -0.729528
 H         4.506159         1.640237         0.179033
 H         3.880046        -0.267817         2.232438
 H         4.860660        -1.381300         0.032329
 H         1.466991        -1.454995        -1.647730
 H         1.846955        -2.076660         0.054365
