19
Iteration:    73charge 0 multiplicity 1
 C        -0.038575         0.328844        -0.137510
 C         1.556419         0.232083        -0.160189
 C         2.481297         1.297361         0.468704
 C         3.767323         0.495861         0.845755
 C         3.270457        -0.935051         1.058740
 O         1.832246        -0.982837         0.762128
 C         4.112255        -0.605083        -0.142848
 O         3.352955        -0.919177        -1.274879
 C         2.170875        -0.166115        -1.521937
 H        -0.455664        -0.524759        -0.910054
 H        -0.501272         0.112942         0.837555
 H        -0.351146         1.345450        -0.411773
 H         2.741933         2.087669        -0.343250
 H         2.029543         1.917345         1.274056
 H         4.544116         0.983886         1.387410
 H         3.606692        -1.615349         1.807855
 H         5.075142        -0.953399        -0.312441
 H         2.407988         0.656919        -2.264727
 H         1.513585        -1.018596        -1.950402
