19
Iteration:  2534
 C        -0.060406         0.318528        -0.274541
 C         1.479453         0.005557        -0.128240
 C         2.520072         0.816792        -1.075417
 C         3.868542         0.773571        -0.407122
 C         3.446213         0.254890         1.035864
 O         2.019005         0.458587         1.120898
 C         4.035614        -0.693494         0.061647
 O         3.275500        -1.714092        -0.543321
 C         1.891626        -1.481538        -0.144211
 H        -0.257379         0.751095         0.767427
 H         0.039687         1.232147        -0.978565
 H        -0.730604        -0.418316        -0.638268
 H         2.657035         0.217112        -2.101570
 H         2.162874         1.795338        -1.151323
 H         4.626913         1.536307        -0.509633
 H         3.845807         0.563708         1.999453
 H         5.033799        -1.081780         0.322064
 H         1.360347        -2.047047        -0.796469
 H         1.792979        -2.030437         0.894106
