19
Iteration:  4449charge 0 multiplicity 1
 C        -0.036067         0.280805        -0.125946
 C         1.525439        -0.018557        -0.137684
 C         2.252898        -0.027734        -1.469811
 C         3.716184         0.098092        -1.105420
 C         3.653417         0.845489         0.201890
 O         2.294810         0.960823         0.610177
 C         4.068355        -0.594778         0.184293
 O         3.191304        -1.519424         0.893736
 C         1.849112        -1.387196         0.502671
 H        -0.446260        -0.227302        -1.072684
 H        -0.572679         0.203246         0.774575
 H        -0.297454         1.243580        -0.439790
 H         1.989278        -0.795773        -2.194201
 H         1.928165         0.946826        -2.034051
 H         4.461934         0.206817        -1.821514
 H         4.229642         1.807043         0.420534
 H         5.057003        -0.894421         0.398668
 H         1.634164        -2.075570        -0.325184
 H         1.314766        -1.447328         1.527218
