19
Iteration:  4461
 C         0.016953         0.256624        -0.106682
 C         1.522183        -0.072983        -0.145206
 C         2.280136         0.001443        -1.597843
 C         3.693716         0.152941        -1.073081
 C         3.680083         0.834047         0.229209
 O         2.292216         0.952749         0.566440
 C         4.098638        -0.656458         0.211710
 O         3.182248        -1.443115         0.870334
 C         1.742422        -1.350941         0.557323
 H        -0.543223        -0.286734        -0.961683
 H        -0.373264        -0.302809         0.675852
 H        -0.060137         1.318110         0.016540
 H         2.202362        -0.877041        -2.199043
 H         1.887194         0.974895        -2.082653
 H         4.486342         0.448748        -1.728170
 H         4.257168         1.761185         0.432927
 H         5.094357        -1.044495         0.240384
 H         1.321057        -2.273067         0.076698
 H         1.154529        -1.460016         1.525313
