19
Iteration:  1601
 C         0.054367         0.374836        -0.127758
 C         1.522010         0.060322        -0.226306
 C         2.453987         1.247865        -0.602219
 C         3.807885         0.791020        -0.002931
 C         3.366264         0.001487         1.211433
 O         1.975113        -0.146874         1.213497
 C         4.054504        -0.712229         0.059747
 O         3.307344        -1.655962        -0.732811
 C         1.938832        -1.178870        -1.040079
 H        -0.325820        -0.128865         0.737868
 H        -0.104470         1.471475        -0.208309
 H        -0.426975        -0.033345        -1.007160
 H         2.425157         1.408803        -1.729551
 H         2.053686         2.006917         0.027779
 H         4.744552         1.360817         0.167567
 H         3.867659         0.202482         2.187534
 H         5.049212        -1.125945         0.014289
 H         1.943369        -0.891277        -2.239680
 H         1.296921        -2.096937        -1.034913
