19
Iteration:  3904charge 0 multiplicity 1
 C         0.062448         0.398389        -0.151284
 C         1.538783        -0.069125        -0.183708
 C         2.290260         0.038538        -1.486417
 C         3.750395         0.264405        -1.054107
 C         3.542153         0.771939         0.374150
 O         2.158329         0.910563         0.629856
 C         4.067761        -0.594477         0.271070
 O         3.232357        -1.720189         0.561147
 C         1.863143        -1.351573         0.557632
 H        -0.214656         0.869685        -1.144623
 H        -0.697004        -0.380636         0.180957
 H         0.027976         1.042092         0.685930
 H         2.173600        -0.807296        -2.063692
 H         1.870981         0.907297        -2.071911
 H         4.408057         0.674683        -1.803884
 H         4.222587         1.534115         0.851555
 H         5.141038        -0.869251         0.426069
 H         1.189693        -2.084648         0.261518
 H         1.670971        -1.055995         1.573740
