19
Iteration:  3700
 C         0.015721         0.345785        -0.182221
 C         1.506435        -0.044072        -0.051947
 C         2.396498         0.070882        -1.424721
 C         3.798308         0.327608        -1.002471
 C         3.579335         0.813981         0.480701
 O         2.163501         0.996229         0.745221
 C         4.066437        -0.600961         0.203241
 O         3.216226        -1.813657         0.340608
 C         1.780619        -1.408626         0.457648
 H        -0.238749         1.368988         0.285871
 H        -0.286857         0.395292        -1.222806
 H        -0.615076        -0.416777         0.367463
 H         2.249117        -0.863258        -2.122856
 H         1.863229         0.883104        -1.937995
 H         4.525503         0.905488        -1.576529
 H         4.139320         1.567445         0.922355
 H         5.125469        -0.905347         0.410902
 H         1.205220        -2.103273        -0.005871
 H         1.661486        -1.431880         1.622689
