19
Iteration:  3899charge 0 multiplicity 1
 C         0.096051         0.360231        -0.143915
 C         1.545989        -0.070782        -0.178735
 C         2.295687         0.048506        -1.521739
 C         3.732828         0.275115        -1.071969
 C         3.567588         0.781720         0.333681
 O         2.142492         0.931335         0.675873
 C         4.083459        -0.599751         0.268049
 O         3.228231        -1.731391         0.589529
 C         1.836336        -1.325442         0.538980
 H        -0.299348         0.687713        -1.079569
 H        -0.573771        -0.456146         0.167151
 H         0.029024         1.196736         0.627886
 H         2.079749        -0.814767        -2.311678
 H         2.028043         1.057038        -1.907549
 H         4.464476         0.630603        -1.828119
 H         4.158639         1.469083         0.884118
 H         5.088897        -0.939962         0.491184
 H         1.158658        -2.244960         0.295538
 H         1.463428        -1.044266         1.602894
