19
Iteration:  2619charge 0 multiplicity 1
 C         0.008287         0.297908        -0.155435
 C         1.511658         0.065354        -0.200503
 C         2.391394         0.965446        -1.106142
 C         3.789539         0.638882        -0.598930
 C         3.482051         0.426757         0.911687
 O         2.122661         0.330453         1.113224
 C         4.008950        -0.725766         0.115150
 O         3.234287        -1.801622         0.005567
 C         1.944248        -1.436737        -0.475015
 H        -0.621428        -0.445826        -0.610283
 H        -0.341283         0.483729         0.890168
 H        -0.125860         1.137367        -0.739832
 H         2.214548         0.800348        -2.127266
 H         2.072835         2.036082        -1.033847
 H         4.655817         1.136007        -1.024321
 H         3.972205         0.772262         1.797715
 H         5.054577        -0.929769         0.312447
 H         1.853953        -1.907779        -1.573439
 H         1.340990        -1.971518         0.202573
