19
Iteration:  2990charge 0 multiplicity 1
 C        -0.000770         0.249569        -0.217368
 C         1.555523         0.095125        -0.132696
 C         2.384002         0.597699        -1.285510
 C         3.749421         0.593567        -0.746343
 C         3.598407         0.600728         0.875987
 O         2.186707         0.569141         1.102578
 C         4.077316        -0.661622         0.112622
 O         3.164589        -1.759348         0.121294
 C         1.812059        -1.473909        -0.156935
 H        -0.410839         0.480688         0.764611
 H        -0.490886         0.908485        -1.046180
 H        -0.379588        -0.680825        -0.589221
 H         2.267937        -0.092595        -2.123825
 H         1.966664         1.486020        -1.911671
 H         4.678980         0.922037        -1.103764
 H         4.080313         1.313378         1.499378
 H         5.115638        -1.025265         0.094749
 H         1.539442        -1.816705        -1.149610
 H         1.323775        -2.095231         0.480650
