19
Iteration:  1330charge 0 multiplicity 1
 C         0.065144         0.447433        -0.115299
 C         1.582252         0.048531        -0.214132
 C         2.590498         1.137109        -0.609772
 C         3.801042         0.756316         0.183743
 C         3.245512        -0.148175         1.236747
 O         1.859528        -0.230146         1.204265
 C         4.016990        -0.685367         0.006304
 O         3.399794        -1.284099        -1.110564
 C         1.945948        -1.248706        -0.842085
 H        -0.447036        -0.052710        -0.938412
 H        -0.307899         0.005665         0.757409
 H         0.080767         1.486539        -0.244798
 H         2.552993         1.116840        -1.653726
 H         2.243213         2.151086        -0.367544
 H         4.565937         1.450629         0.481031
 H         3.665217        -0.411338         2.170332
 H         4.911809        -1.147072         0.324180
 H         1.395430        -1.588529        -1.725379
 H         1.639806        -2.113694        -0.196982
