19
Iteration:   899charge 0 multiplicity 1
 C         0.047769         0.248885        -0.237252
 C         1.567171         0.149350        -0.130064
 C         2.551591         1.345294        -0.155650
 C         3.858158         0.734432         0.324318
 C         3.317334        -0.407977         1.286510
 O         1.917717        -0.460756         1.177594
 C         4.003063        -0.690918        -0.020809
 O         3.316225        -1.309710        -1.111358
 C         1.924896        -0.843831        -1.325853
 H        -0.246038         0.982928        -1.080148
 H        -0.486726        -0.786001        -0.476875
 H        -0.345451         0.686540         0.756922
 H         2.580523         1.773267        -1.130228
 H         2.163505         2.004169         0.642064
 H         4.755399         1.283861         0.623596
 H         3.711848        -0.592316         2.239176
 H         5.089917        -0.983775        -0.047326
 H         1.939291        -0.435515        -2.346533
 H         1.271578        -1.686642        -1.278868
