19
Iteration:  4871charge 0 multiplicity 1
 C         0.021643         0.284304        -0.067313
 C         1.534706         0.012752        -0.164715
 C         2.219598        -0.090845        -1.523838
 C         3.683462         0.087722        -1.058423
 C         3.627462         0.880215         0.213005
 O         2.282595         1.155813         0.430998
 C         4.060553        -0.661838         0.186792
 O         3.229535        -1.565238         0.944230
 C         1.824795        -1.423521         0.580224
 H        -0.220654         1.224465         0.441948
 H        -0.453137         0.278547        -1.132269
 H        -0.446843        -0.480086         0.465611
 H         2.140310        -1.030645        -2.197525
 H         1.908111         0.757064        -2.175394
 H         4.371766         0.117971        -1.952727
 H         4.340791         1.710877         0.452215
 H         5.106069        -0.928055         0.436518
 H         1.451779        -2.368377        -0.049776
 H         1.368044        -1.403552         1.608478
