19
Iteration:    45
 C         0.129235         0.372720        -0.174820
 C         1.601819         0.153629        -0.070931
 C         2.439790         1.297190         0.570135
 C         3.720902         0.546486         0.742009
 C         3.230578        -0.880133         1.111049
 O         1.882196        -1.052917         0.782072
 C         3.920823        -0.652038        -0.128475
 O         3.404705        -0.896214        -1.427530
 C         2.168243        -0.186571        -1.503404
 H        -0.473065        -0.473523        -0.025818
 H        -0.342751         1.205234         0.376221
 H        -0.049674         0.593327        -1.254197
 H         2.398454         2.151469        -0.060885
 H         1.896824         1.503485         1.491537
 H         4.617358         0.931621         1.254585
 H         3.566458        -1.398537         2.038582
 H         5.021601        -0.879166        -0.212119
 H         2.261494         0.799619        -2.003181
 H         1.394694        -0.733844        -1.990830
