19
Iteration:  4890charge 0 multiplicity 1
 C         0.055562         0.292745        -0.092974
 C         1.546793        -0.044201        -0.190763
 C         2.294095        -0.101811        -1.607776
 C         3.729021         0.069782        -1.156960
 C         3.597803         0.802931         0.219138
 O         2.213451         0.984651         0.565337
 C         4.007929        -0.586457         0.207284
 O         3.236751        -1.550331         0.836177
 C         1.815851        -1.189978         0.701553
 H        -0.011500         1.278807         0.141202
 H        -0.452340         0.359874        -1.115313
 H        -0.448481        -0.455226         0.577910
 H         1.987383        -1.114115        -1.895686
 H         1.781024         0.602157        -2.242154
 H         4.561803         0.373619        -1.867017
 H         4.257994         1.545293         0.605359
 H         5.117551        -0.811833         0.365389
 H         1.415083        -2.130595         0.209110
 H         1.448991        -1.127212         1.728529
