19
Iteration:  3281charge 0 multiplicity 1
 C         0.042445         0.322128        -0.170096
 C         1.561402        -0.029957        -0.166509
 C         2.337089         0.459486        -1.418451
 C         3.758216         0.402222        -0.824214
 C         3.530189         0.705714         0.634654
 O         2.129451         0.786661         0.897496
 C         4.115195        -0.610173         0.197563
 O         3.247912        -1.797632         0.272602
 C         1.803327        -1.549618         0.138037
 H        -0.635151        -0.473158        -0.011659
 H        -0.117510         1.177162         0.478566
 H        -0.366625         0.696501        -1.158512
 H         2.173650        -0.116286        -2.313323
 H         2.121784         1.548527        -1.533298
 H         4.539290         1.038779        -1.281483
 H         4.146836         1.393740         1.305905
 H         5.045930        -0.981072         0.559936
 H         1.386204        -2.293836        -0.699835
 H         1.318046        -1.844479         1.122747
