19
Iteration:  4345charge 0 multiplicity 1
 C        -0.016506         0.272859        -0.227018
 C         1.557057        -0.023143        -0.019898
 C         2.286805        -0.085801        -1.437244
 C         3.740554         0.168140        -1.024680
 C         3.556476         0.850698         0.396043
 O         2.220997         1.245281         0.503222
 C         4.043935        -0.609097         0.196858
 O         3.237964        -1.787680         0.476518
 C         1.878597        -1.375012         0.708008
 H        -0.610431        -0.291479         0.392285
 H        -0.294506         1.287085         0.032329
 H        -0.274166         0.224971        -1.336006
 H         2.046134        -1.064631        -1.996257
 H         1.945461         0.798154        -1.955809
 H         4.457914         0.568152        -1.781289
 H         4.212143         1.564605         0.925940
 H         4.993522        -0.798408         0.667814
 H         1.210988        -2.138379         0.376051
 H         1.833034        -1.470148         1.769469
