19
Iteration:  3124charge 0 multiplicity 1
 C        -0.018005         0.339018        -0.180569
 C         1.470973         0.023609        -0.181048
 C         2.455055         0.445034        -1.324508
 C         3.837711         0.496520        -0.705817
 C         3.451966         0.545749         0.849111
 O         2.021436         0.835812         0.931935
 C         4.052708        -0.655654         0.113053
 O         3.280061        -1.825713        -0.110697
 C         1.952183        -1.521580         0.218137
 H        -0.359317         0.654408        -1.271514
 H        -0.709859        -0.444654         0.210421
 H        -0.095695         1.236887         0.452989
 H         2.363703        -0.137496        -2.187203
 H         2.047488         1.595971        -1.468223
 H         4.781082         0.975351        -1.105957
 H         4.001971         1.136757         1.571336
 H         5.102730        -0.981727         0.338661
 H         1.250035        -2.225205        -0.525747
 H         1.782418        -1.675877         1.256714
