19
Iteration:  4222
 C        -0.008132         0.217576        -0.119078
 C         1.521174        -0.050837        -0.169983
 C         2.246859         0.136364        -1.545722
 C         3.719802         0.205511        -1.087012
 C         3.698234         0.734686         0.275107
 O         2.298612         0.948707         0.672142
 C         4.053383        -0.647761         0.165327
 O         3.171088        -1.494660         0.841299
 C         1.799624        -1.384966         0.443491
 H        -0.216111         0.980721         0.684931
 H        -0.339934         0.582914        -1.035469
 H        -0.577602        -0.666920         0.202889
 H         2.114299        -0.662061        -2.247568
 H         1.872185         1.164765        -1.913825
 H         4.648783         0.355092        -1.686269
 H         4.169936         1.603296         0.680660
 H         5.078327        -1.052650         0.447478
 H         1.638062        -2.198342        -0.315811
 H         1.152016        -1.512645         1.312293
