19
Iteration:    29
 C         0.013856         0.441633        -0.219081
 C         1.552269         0.103161        -0.059673
 C         2.361168         1.237598         0.602931
 C         3.711666         0.529203         0.743523
 C         3.242151        -0.929200         1.085248
 O         1.778123        -1.016453         0.927011
 C         4.095887        -0.654651        -0.205516
 O         3.495994        -0.840862        -1.478522
 C         2.190778        -0.189620        -1.524802
 H        -0.439152        -0.212511         0.672618
 H        -0.065170         1.486318         0.097403
 H        -0.420207         0.349676        -1.225734
 H         2.481401         2.162246        -0.063712
 H         2.141832         1.668564         1.599355
 H         4.517068         1.143327         1.157641
 H         3.652641        -1.637231         1.777689
 H         5.092952        -1.061871        -0.155528
 H         2.400032         0.697951        -2.171685
 H         1.652631        -1.005774        -2.100531
