19
Iteration:   487
 C        -0.041967         0.457919        -0.112024
 C         1.552004         0.130739        -0.169379
 C         2.462445         1.316085         0.155897
 C         3.730150         0.710914         0.546267
 C         3.344698        -0.637944         1.215046
 O         1.928471        -0.789586         0.947221
 C         4.103414        -0.605973        -0.084677
 O         3.315324        -1.263947        -1.126468
 C         2.112430        -0.598361        -1.502765
 H        -0.352837         1.501966         0.164014
 H        -0.431749         0.370251        -1.204552
 H        -0.671944        -0.266175         0.378475
 H         2.597057         1.734144        -0.832876
 H         2.060412         2.065112         0.802557
 H         4.510121         1.357695         0.834796
 H         3.687044        -1.019258         2.186226
 H         5.143984        -0.925522        -0.193092
 H         2.374996         0.402627        -2.030069
 H         1.441468        -1.318833        -1.967259
