19
Iteration:   642charge 0 multiplicity 1
 C         0.091240         0.299585        -0.240521
 C         1.546912         0.139386        -0.140789
 C         2.440312         1.412846         0.056615
 C         3.746238         0.687523         0.389545
 C         3.359668        -0.443772         1.283937
 O         1.960231        -0.763388         1.059937
 C         4.007204        -0.716096        -0.089648
 O         3.261433        -1.328065        -1.055358
 C         2.051073        -0.557212        -1.433945
 H        -0.254169         0.092492        -1.235396
 H        -0.475795        -0.219063         0.592353
 H        -0.146054         1.343848        -0.097679
 H         2.566701         2.016422        -0.884608
 H         2.190567         2.062285         0.859284
 H         4.622022         1.285443         0.733591
 H         3.718123        -0.696986         2.240966
 H         5.077770        -0.989183        -0.210316
 H         2.312048         0.176852        -2.227821
 H         1.343245        -1.150653        -1.890766
