19
Iteration:  1059charge 0 multiplicity 1
 C         0.026333         0.301923        -0.184355
 C         1.537676         0.083036        -0.146322
 C         2.367561         1.400225        -0.277187
 C         3.834312         0.793921         0.205060
 C         3.413723        -0.262732         1.219020
 O         1.966817        -0.457189         1.152432
 C         4.061452        -0.756201        -0.078152
 O         3.154796        -1.550820        -0.801639
 C         2.144086        -0.782554        -1.302997
 H        -0.526064        -0.682843        -0.034366
 H        -0.303028         1.061558         0.565374
 H        -0.120120         0.623138        -1.219717
 H         2.389411         1.861047        -1.366745
 H         2.049348         2.114384         0.493727
 H         4.752786         1.365376         0.437038
 H         3.703651        -0.383552         2.255879
 H         5.125816        -1.134339        -0.292244
 H         2.503942        -0.217909        -2.175907
 H         1.268860        -1.477978        -1.630237
