19
Iteration:  3403
 C         0.002910         0.330116        -0.193705
 C         1.515285        -0.043741        -0.161571
 C         2.392488         0.420071        -1.495155
 C         3.746152         0.430850        -0.899751
 C         3.604853         0.676477         0.598316
 O         2.194186         0.764625         0.923262
 C         4.032903        -0.621991         0.181582
 O         3.221398        -1.712463         0.422061
 C         1.783419        -1.483060         0.186536
 H        -0.200531         1.384194        -0.225015
 H        -0.582119        -0.269908        -1.003780
 H        -0.390825        -0.067243         0.745057
 H         2.323356        -0.450449        -2.207184
 H         2.053814         1.342409        -1.885963
 H         4.570528         0.706356        -1.545648
 H         4.178942         1.354806         1.141589
 H         5.103060        -0.969582         0.284308
 H         1.515898        -2.289717        -0.586155
 H         1.266014        -1.703401         1.052549
