19
Iteration:  1227charge 0 multiplicity 1
 C         0.036676         0.357282        -0.064060
 C         1.514067         0.050232        -0.186715
 C         2.476911         1.264896        -0.517268
 C         3.811201         0.785489         0.131466
 C         3.349614        -0.143766         1.269071
 O         1.992055        -0.379350         1.162079
 C         4.025201        -0.685683         0.040426
 O         3.237009        -1.517260        -0.817149
 C         2.030345        -0.941687        -1.286715
 H        -0.228468         0.287662         0.946966
 H        -0.053102         1.349104        -0.550062
 H        -0.634284        -0.372585        -0.539153
 H         2.712444         1.323337        -1.601625
 H         2.157951         2.097842         0.032520
 H         4.597215         1.478068         0.529011
 H         3.691062        -0.289666         2.255358
 H         4.987213        -1.055805         0.201340
 H         2.177527        -0.497459        -2.322879
 H         1.413152        -1.877260        -1.243349
