19
Iteration:  1848
 C         0.054432         0.393918        -0.115632
 C         1.555551         0.095694        -0.212531
 C         2.379843         1.278619        -0.658499
 C         3.724061         0.752965        -0.194067
 C         3.377650         0.115264         1.117341
 O         2.047088        -0.158261         1.233452
 C         4.014926        -0.753261         0.087434
 O         3.251644        -1.747156        -0.529756
 C         2.078864        -1.246970        -1.033272
 H        -0.165336         0.714027         0.829875
 H         0.058914         1.305909        -0.746527
 H        -0.649626        -0.377911        -0.517557
 H         2.303369         1.566958        -1.652515
 H         2.107462         2.341761        -0.198875
 H         4.538003         1.429692        -0.251807
 H         3.713560         0.278422         2.080672
 H         5.097438        -1.054260         0.128773
 H         2.071011        -1.105188        -2.223443
 H         1.339370        -1.914206        -0.723329
