19
Iteration:  1019
 C         0.028207         0.271605        -0.183826
 C         1.592776         0.147792        -0.131765
 C         2.515857         1.425608        -0.230588
 C         3.795907         0.768921         0.266738
 C         3.372791        -0.318572         1.228414
 O         1.873833        -0.385703         1.153390
 C         4.052502        -0.760865        -0.092489
 O         3.270754        -1.468400        -0.976288
 C         2.035640        -0.897287        -1.274070
 H        -0.410134        -0.038392         0.750272
 H        -0.325493         1.266889        -0.491886
 H        -0.388816        -0.447955        -0.925687
 H         2.369953         1.911764        -1.157250
 H         2.229648         1.927401         0.725413
 H         4.677945         1.377793         0.338582
 H         3.761168        -0.344589         2.304750
 H         5.100202        -1.192720        -0.040405
 H         1.965140        -0.339412        -2.232137
 H         1.398610        -1.761704        -1.237582
