19
Iteration:   800charge 0 multiplicity 1
 C         0.053587         0.298373        -0.283687
 C         1.586546         0.118015        -0.099085
 C         2.581014         1.380698        -0.167705
 C         3.805755         0.678638         0.459168
 C         3.241322        -0.500884         1.187690
 O         1.874999        -0.520281         1.233365
 C         3.973147        -0.740053        -0.076762
 O         3.390256        -1.120357        -1.266443
 C         1.978446        -0.825654        -1.161278
 H        -0.274801        -0.675038         0.193888
 H        -0.338460         1.222652         0.109006
 H        -0.287037         0.271919        -1.377335
 H         2.713695         1.652117        -1.181866
 H         2.249563         2.282352         0.371327
 H         4.621986         1.162497         1.043959
 H         3.798648        -0.817585         2.069211
 H         4.953190        -1.102409         0.041444
 H         1.611398        -0.551093        -2.148483
 H         1.486401        -1.757054        -1.038778
