19
Iteration:  2014charge 0 multiplicity 1
 C        -0.042570         0.301670        -0.109173
 C         1.524325         0.110991        -0.223641
 C         2.465058         1.219052        -0.774721
 C         3.808144         0.712272        -0.288151
 C         3.436777         0.073006         1.150317
 O         1.993019         0.070581         1.228107
 C         4.118465        -0.697164         0.051568
 O         3.241413        -1.767256        -0.420232
 C         1.965587        -1.281443        -0.974151
 H        -0.640631         0.945375        -0.812426
 H        -0.469582        -0.690982        -0.238702
 H        -0.288301         0.592116         0.870452
 H         2.349789         1.523470        -1.781377
 H         2.244164         2.230164        -0.215250
 H         4.589035         1.500814        -0.276946
 H         3.970977         0.253090         2.131387
 H         5.109846        -1.021331         0.181492
 H         2.237007        -1.080161        -2.001485
 H         1.254601        -2.023248        -0.894144
