19
Iteration:  4311
 C         0.083389         0.302459        -0.272899
 C         1.571820        -0.021812        -0.161499
 C         2.242083        -0.089301        -1.506722
 C         3.725974         0.182914        -1.070470
 C         3.539991         0.867982         0.389018
 O         2.230530         0.968134         0.745472
 C         4.078442        -0.577684         0.173487
 O         3.200932        -1.694350         0.529651
 C         1.830862        -1.292901         0.685159
 H        -0.386572         0.215187         0.680979
 H         0.073834         1.311396        -0.523529
 H        -0.555319        -0.373441        -0.960198
 H         2.156340        -1.009595        -2.099903
 H         1.858937         0.728908        -2.150127
 H         4.329380         0.640500        -1.803981
 H         4.206631         1.716792         0.788941
 H         5.078882        -0.721467         0.478119
 H         1.107117        -2.126539         0.583311
 H         1.781793        -0.845692         1.654280
