19
Iteration:  2659charge 0 multiplicity 1
 C        -0.027562         0.269381        -0.186429
 C         1.569298         0.033021        -0.160710
 C         2.372534         0.830467        -1.165122
 C         3.768465         0.682785        -0.530636
 C         3.586532         0.470401         0.955197
 O         2.131595         0.419119         1.141803
 C         4.030987        -0.644629         0.103243
 O         3.168803        -1.775224        -0.064803
 C         1.882654        -1.496120        -0.431328
 H        -0.200894         0.422238        -1.254302
 H        -0.566868        -0.607847         0.158955
 H        -0.246116         1.308145         0.394594
 H         2.479576         0.292026        -2.122480
 H         2.262318         1.947599        -1.368128
 H         4.556313         1.240388        -1.002673
 H         4.183268         0.636104         1.838550
 H         5.069305        -1.060212         0.275416
 H         1.692959        -1.697544        -1.433813
 H         1.186683        -2.165253         0.158162
