19
Iteration:   536charge 0 multiplicity 1
 C         0.047577         0.400797        -0.251642
 C         1.563284         0.097771        -0.123409
 C         2.573091         1.316935         0.013403
 C         3.795259         0.619220         0.610912
 C         3.259810        -0.668356         1.205838
 O         1.811800        -0.628531         1.166007
 C         4.005714        -0.649720        -0.101840
 O         3.449587        -0.930178        -1.386991
 C         1.997282        -0.827131        -1.294825
 H        -0.416056         0.447659         0.714753
 H        -0.290918         1.294542        -0.714624
 H        -0.459880        -0.397121        -0.893177
 H         2.738010         1.875205        -0.929113
 H         2.140310         2.021540         0.734773
 H         4.737969         1.102708         0.932254
 H         3.576400        -1.288173         2.013483
 H         5.061067        -1.037009        -0.058256
 H         1.673156        -0.443845        -2.258302
 H         1.571392        -1.762265        -0.861101
