19
Iteration:  2309charge 0 multiplicity 1
 C         0.013890         0.415801        -0.330531
 C         1.503830        -0.006777        -0.121806
 C         2.472730         0.796391        -1.016585
 C         3.862678         0.843651        -0.212984
 C         3.464852         0.263615         1.085821
 O         2.045728         0.188688         1.236835
 C         4.091359        -0.688663         0.143564
 O         3.236903        -1.556154        -0.685220
 C         1.801892        -1.497724        -0.368025
 H        -0.351294         0.848925         0.657804
 H        -0.230174         1.095082        -1.154003
 H        -0.564626        -0.480935        -0.484026
 H         2.732155         0.328097        -1.921749
 H         2.200764         1.914381        -1.085370
 H         4.543210         1.691940        -0.418953
 H         4.116284         0.508266         1.979622
 H         5.134969        -1.128683         0.246784
 H         1.390915        -1.799065        -1.307608
 H         1.388869        -2.255456         0.378482
