19
Iteration:  1212
 C         0.083104         0.349829        -0.133021
 C         1.618100         0.105339        -0.165948
 C         2.517749         1.267565        -0.470909
 C         3.755898         0.794573         0.197531
 C         3.332483        -0.206110         1.256509
 O         1.904420        -0.368498         1.171636
 C         4.039605        -0.711840         0.049602
 O         3.327031        -1.461776        -0.924752
 C         1.930536        -1.031266        -1.166571
 H        -0.106007         0.847923         0.894114
 H        -0.289362         1.120737        -0.793859
 H        -0.401233        -0.629629        -0.343783
 H         2.542988         1.424887        -1.547534
 H         2.125137         2.215407        -0.108476
 H         4.601823         1.443168         0.091659
 H         3.754954        -0.128118         2.284985
 H         5.090638        -1.097527        -0.020713
 H         1.836717        -0.582669        -2.111067
 H         1.228440        -1.809782        -1.237557
