19
Iteration:  3264charge 0 multiplicity 1
 C         0.029029         0.227828        -0.147603
 C         1.523875         0.063991        -0.183940
 C         2.421102         0.460062        -1.444405
 C         3.806381         0.463839        -0.872623
 C         3.550574         0.656660         0.671409
 O         2.152817         0.702639         0.958470
 C         3.989058        -0.648308         0.166107
 O         3.190383        -1.760490         0.375302
 C         1.856181        -1.391211         0.030762
 H        -0.482673        -0.515118         0.576115
 H        -0.254648         1.204409         0.401928
 H        -0.452602         0.223886        -1.102989
 H         2.265477        -0.425854        -2.210268
 H         2.025977         1.398617        -1.830752
 H         4.633534         0.741466        -1.525003
 H         4.028719         1.318587         1.298507
 H         5.089464        -0.843209         0.233831
 H         1.634577        -1.950770        -0.832696
 H         1.329239        -1.847556         0.903297
