19
Iteration:  3503charge 0 multiplicity 1
 C         0.056147         0.152186        -0.180905
 C         1.529973         0.051459        -0.092054
 C         2.425668         0.208656        -1.464877
 C         3.830215         0.429657        -0.928369
 C         3.612591         0.759370         0.567194
 O         2.200839         0.904361         0.884951
 C         3.991192        -0.593525         0.200245
 O         3.136376        -1.773821         0.239345
 C         1.734626        -1.361352         0.383863
 H        -0.572209        -0.654538         0.288870
 H        -0.236182         1.194336         0.236883
 H        -0.201313         0.190620        -1.212356
 H         2.449712        -0.765226        -2.114285
 H         1.985456         0.972247        -2.022208
 H         4.636000         0.602015        -1.655063
 H         4.218428         1.544616         1.179289
 H         4.976836        -0.957040         0.315195
 H         1.083977        -2.077343        -0.266593
 H         1.521197        -1.514337         1.324903
