19
Iteration:  1685charge 0 multiplicity 1
 C         0.088099         0.356915        -0.147142
 C         1.568184         0.076562        -0.146468
 C         2.514974         1.210930        -0.715673
 C         3.750897         0.811674        -0.043227
 C         3.320323        -0.003820         1.198723
 O         1.917286        -0.101206         1.244835
 C         4.067355        -0.736740         0.076575
 O         3.321872        -1.645416        -0.825749
 C         1.948644        -1.211637        -0.931832
 H        -0.401420        -0.282518        -0.822172
 H        -0.269658         0.030123         0.892499
 H        -0.182958         1.443998        -0.361693
 H         2.545697         1.297589        -1.771775
 H         2.263771         2.280972        -0.412027
 H         4.698613         1.436246         0.141778
 H         3.805187         0.131906         2.211413
 H         5.052439        -1.108989         0.264311
 H         1.624639        -0.928440        -1.965844
 H         1.351848        -2.059255        -0.510502
