19
Iteration:  2478
 C         0.006882         0.326394        -0.222474
 C         1.501601         0.064171        -0.174093
 C         2.454344         0.781403        -1.063056
 C         3.834293         0.762216        -0.420839
 C         3.545442         0.285233         1.033039
 O         2.059347         0.359074         1.244212
 C         4.054685        -0.632423         0.075158
 O         3.248639        -1.714610        -0.307311
 C         1.808487        -1.437094        -0.489637
 H        -0.401931         1.318145        -0.502324
 H        -0.416931        -0.410446        -0.983613
 H        -0.414105         0.082871         0.726758
 H         2.476796         0.410284        -2.123210
 H         2.146904         1.802245        -1.205663
 H         4.668598         1.398296        -0.727264
 H         3.960614         0.630477         2.002511
 H         5.081368        -1.140202         0.254812
 H         1.654584        -1.584035        -1.510584
 H         1.268200        -2.255747         0.103026
