19
Iteration:  4970charge 0 multiplicity 1
 C         0.001376         0.295689        -0.116785
 C         1.461014        -0.064116        -0.136127
 C         2.340995        -0.117333        -1.521136
 C         3.789527         0.171215        -1.060112
 C         3.629540         0.891511         0.231066
 O         2.225815         0.997969         0.510545
 C         4.089470        -0.575755         0.255028
 O         3.129314        -1.662497         0.573452
 C         1.838934        -1.237872         0.763752
 H        -0.277295         0.881657        -1.014986
 H        -0.508513        -0.642230         0.005109
 H        -0.271044         0.907170         0.648424
 H         2.116149        -1.111570        -2.003178
 H         1.932867         0.641152        -2.215077
 H         4.602252         0.157947        -1.713341
 H         4.302855         1.674875         0.693061
 H         5.041890        -0.725956         0.652784
 H         1.245001        -2.253453         0.685211
 H         1.745548        -0.873604         1.803418
