19
Iteration:  4158charge 0 multiplicity 1
 C         0.023031         0.452571        -0.137213
 C         1.463885        -0.096323        -0.148775
 C         2.310945        -0.084240        -1.446974
 C         3.741467         0.199465        -0.991712
 C         3.548558         0.852153         0.363984
 O         2.136842         1.040928         0.519044
 C         4.082217        -0.609307         0.197224
 O         3.301800        -1.771950         0.479557
 C         1.854729        -1.343426         0.719611
 H        -0.341618         0.332972         0.848560
 H        -0.015276         1.471871        -0.311444
 H        -0.603370        -0.056392        -0.915685
 H         2.275105        -0.964371        -2.110349
 H         1.937111         0.822083        -1.943438
 H         4.575542         0.379686        -1.698515
 H         4.175892         1.627794         0.756939
 H         5.205646        -0.623046         0.383489
 H         1.399008        -2.241362         0.354602
 H         1.497757        -1.127789         1.859070
