19
Iteration:   303
 C         0.049257         0.315168        -0.196139
 C         1.565219         0.169372        -0.111113
 C         2.514043         1.307045         0.203021
 C         3.741842         0.577610         0.689463
 C         3.279895        -0.724272         1.200120
 O         1.889282        -0.810620         0.957009
 C         3.998138        -0.677409        -0.110981
 O         3.376408        -0.964603        -1.294007
 C         2.027277        -0.467971        -1.455769
 H        -0.187017         1.416497         0.096783
 H        -0.123288         0.169287        -1.318526
 H        -0.469730        -0.421702         0.314243
 H         2.878516         2.073106        -0.610523
 H         2.106455         1.931390         1.037092
 H         4.632221         1.102358         1.075996
 H         3.638545        -1.293482         2.039218
 H         5.071695        -1.083018        -0.102682
 H         1.999629         0.254340        -2.286663
 H         1.506692        -1.401424        -1.631240
