19
Iteration:  4489charge 0 multiplicity 1
 C         0.040253         0.301439        -0.125339
 C         1.570377        -0.050617        -0.126351
 C         2.296200        -0.054335        -1.581942
 C         3.719285         0.103653        -1.128877
 C         3.550007         0.836841         0.283386
 O         2.217881         1.030036         0.556418
 C         3.983629        -0.583397         0.232707
 O         3.264269        -1.655435         0.796876
 C         1.842529        -1.246960         0.606921
 H        -0.319474         0.387819        -1.121899
 H        -0.585462        -0.590602         0.341614
 H        -0.011011         1.213460         0.530177
 H         2.154382        -1.009810        -2.175980
 H         1.884699         0.760055        -2.141039
 H         4.536213         0.179165        -1.852920
 H         4.206992         1.695939         0.609610
 H         5.065940        -0.692804         0.391807
 H         1.290973        -2.132314         0.110688
 H         1.460669        -1.100199         1.615470
