19
Iteration:  1407
 C        -0.020723         0.322769        -0.303427
 C         1.609716         0.057977        -0.205504
 C         2.471770         1.308493        -0.455379
 C         3.803217         0.837773         0.110575
 C         3.461366        -0.079569         1.184432
 O         2.031422        -0.201181         1.222111
 C         4.054727        -0.717632        -0.034461
 O         3.210371        -1.593033        -0.759403
 C         1.910544        -1.149211        -1.011880
 H        -0.121356         1.253182        -0.913267
 H        -0.404012        -0.502569        -0.886525
 H        -0.509792         0.243956         0.651913
 H         2.453308         1.752409        -1.400443
 H         1.905827         2.005148         0.162188
 H         4.700456         1.479054        -0.060716
 H         3.878879        -0.184070         2.183231
 H         5.039205        -1.043024         0.026485
 H         1.796775        -0.873769        -2.084718
 H         1.324031        -2.047403        -0.625931
