19
Iteration:   722charge 0 multiplicity 1
 C         0.021540         0.504195        -0.179586
 C         1.511973         0.044613        -0.161041
 C         2.553235         1.286546        -0.173120
 C         3.755505         0.727730         0.532084
 C         3.308443        -0.604886         1.220341
 O         1.875378        -0.674118         1.109225
 C         4.054855        -0.614051        -0.043499
 O         3.383670        -1.087634        -1.194284
 C         1.998543        -0.897766        -1.290986
 H         0.012719         1.592978         0.048172
 H        -0.356209         0.413771        -1.124808
 H        -0.474712        -0.146183         0.596065
 H         2.789419         1.680623        -1.136470
 H         2.225495         2.079927         0.442904
 H         4.466714         1.465208         0.886656
 H         3.659590        -0.697088         2.287644
 H         5.084331        -0.945165        -0.149089
 H         1.861386        -0.395275        -2.228747
 H         1.551719        -1.881804        -1.261227
