19
Iteration:  1127charge 0 multiplicity 1
 C         0.039302         0.410465        -0.210339
 C         1.552939         0.027143        -0.125834
 C         2.547591         1.198343        -0.479549
 C         3.820477         0.766979         0.335176
 C         3.278864        -0.353371         1.271706
 O         1.875636        -0.314901         1.261400
 C         4.054622        -0.693604        -0.046014
 O         3.357004        -1.161559        -1.180649
 C         1.970937        -1.147561        -1.006308
 H        -0.135906         0.724486        -1.276388
 H        -0.725902        -0.296060         0.024234
 H        -0.116108         1.366784         0.335976
 H         2.726641         1.194112        -1.650460
 H         2.126621         2.218538        -0.148854
 H         4.631955         1.407134         0.640320
 H         3.773976        -0.741693         2.218627
 H         5.073349        -1.151001        -0.010206
 H         1.484088        -1.136151        -2.011938
 H         1.678361        -2.111811        -0.421810
