19
Iteration:  2866
 C         0.124142         0.316335        -0.168712
 C         1.558900         0.087649        -0.186564
 C         2.363967         0.806417        -1.259591
 C         3.713123         0.611414        -0.660383
 C         3.450235         0.477600         0.837099
 O         2.044640         0.499318         1.046510
 C         4.081663        -0.721783         0.121006
 O         3.264050        -1.849451         0.062182
 C         1.892613        -1.476525        -0.160132
 H        -0.290254        -0.165400        -1.092955
 H        -0.306379        -0.201705         0.659540
 H        -0.218335         1.447860        -0.185103
 H         2.175758         0.368650        -2.374043
 H         2.197466         1.854439        -1.304003
 H         4.555258         1.197689        -1.068514
 H         4.124598         1.070419         1.494695
 H         5.122817        -0.910426         0.192748
 H         1.609701        -2.036774        -1.129819
 H         1.293604        -1.877220         0.681412
