19
Iteration:  2406charge 0 multiplicity 1
 C         0.035232         0.306441        -0.223883
 C         1.566054         0.071739        -0.165345
 C         2.444690         0.985509        -1.016118
 C         3.760588         0.749349        -0.397495
 C         3.507124         0.340430         1.028039
 O         2.073203         0.241607         1.225225
 C         4.066715        -0.707118         0.082779
 O         3.196627        -1.860034        -0.207175
 C         1.885433        -1.349005        -0.624658
 H        -0.602280        -0.439764        -0.809729
 H        -0.365188         0.226630         0.803987
 H        -0.216279         1.294044        -0.560700
 H         2.313169         0.606827        -2.105395
 H         1.959767         2.035095        -0.981107
 H         4.565914         1.422278        -0.695998
 H         4.022776         0.814520         1.848791
 H         5.093602        -0.992622         0.080746
 H         1.919390        -1.296193        -1.814292
 H         1.222687        -2.194561        -0.367223
