19
Iteration:  1494
 C         0.098473         0.344384        -0.240954
 C         1.622636         0.123381        -0.178427
 C         2.504142         1.311959        -0.570533
 C         3.782468         0.840213         0.047885
 C         3.328739        -0.102062         1.207469
 O         1.949187        -0.224423         1.174923
 C         4.006267        -0.704533         0.034633
 O         3.349413        -1.576663        -0.854642
 C         1.899523        -1.198253        -0.910462
 H        -0.221350         0.686968         0.849362
 H        -0.311268         1.147268        -0.919118
 H        -0.506956        -0.602606        -0.301686
 H         2.328628         1.323705        -1.744425
 H         2.067744         2.258966        -0.156507
 H         4.743978         1.400645         0.138079
 H         3.790917        -0.188605         2.230612
 H         5.032916        -1.064716         0.156917
 H         1.528805        -1.182642        -1.914700
 H         1.284571        -1.997961        -0.279733
