19
Iteration:  1701
 C        -0.021407         0.410008        -0.173840
 C         1.504695         0.086400        -0.178591
 C         2.534867         1.055776        -0.737042
 C         3.853069         0.799907         0.070886
 C         3.366192        -0.054803         1.259396
 O         1.963458        -0.081879         1.237273
 C         4.028708        -0.697740         0.025484
 O         3.356255        -1.455145        -0.863596
 C         1.891153        -1.278977        -0.861213
 H        -0.514052         0.132102        -1.191684
 H        -0.385773        -0.100227         0.685837
 H        -0.047349         1.478225        -0.039265
 H         2.839522         0.794126        -1.870035
 H         2.127008         2.047843        -0.673087
 H         4.565633         1.556793         0.020471
 H         3.824303        -0.077999         2.217944
 H         5.076309        -1.086419         0.132335
 H         1.562756        -1.538668        -1.881855
 H         1.367025        -2.106810        -0.373786
