19
Iteration:   757charge 0 multiplicity 1
 C         0.115156         0.512446        -0.184787
 C         1.565575         0.044146        -0.129053
 C         2.567761         1.217992        -0.207834
 C         3.747536         0.742616         0.510965
 C         3.220308        -0.589516         1.182990
 O         1.802764        -0.556013         1.193175
 C         4.005671        -0.715786        -0.065165
 O         3.424483        -0.864194        -1.366150
 C         2.073923        -1.096362        -1.144303
 H        -0.184932         0.841868         0.846050
 H        -0.019678         1.312886        -0.899955
 H        -0.712236        -0.153725        -0.516352
 H         2.730335         1.589738        -1.181753
 H         2.124402         2.031434         0.413870
 H         4.455302         1.408014         1.060664
 H         3.643543        -0.825324         2.178677
 H         4.875634        -1.290846         0.001034
 H         1.533694        -1.098014        -2.122155
 H         1.784854        -2.128124        -0.721976
