19
Iteration:  3697charge 0 multiplicity 1
 C         0.000166         0.342016        -0.166596
 C         1.512167        -0.040281        -0.051692
 C         2.396898         0.028855        -1.434530
 C         3.801627         0.316236        -0.992905
 C         3.592276         0.835819         0.489614
 O         2.188346         0.999223         0.765514
 C         4.062174        -0.575954         0.195356
 O         3.195151        -1.786054         0.344854
 C         1.772521        -1.434911         0.440762
 H        -0.160786         1.351166         0.232107
 H        -0.326770         0.346002        -1.274675
 H        -0.630261        -0.328363         0.337154
 H         2.264229        -0.820741        -2.139269
 H         1.790389         0.903663        -1.907568
 H         4.536560         0.845872        -1.632026
 H         4.206467         1.607491         0.941223
 H         5.112197        -0.858791         0.415813
 H         1.245937        -2.229067        -0.117203
 H         1.596684        -1.512080         1.500784
