19
Iteration:  2414
 C         0.030426         0.378330        -0.192890
 C         1.522566         0.038957        -0.157771
 C         2.392289         0.988421        -1.032220
 C         3.774876         0.711461        -0.365149
 C         3.480940         0.353772         1.035423
 O         2.049896         0.238581         1.137136
 C         4.062962        -0.749117         0.024508
 O         3.249795        -1.813661        -0.139316
 C         1.912130        -1.394376        -0.622195
 H        -0.500647        -0.255668        -0.990917
 H        -0.216563        -0.029927         0.862902
 H        -0.208556         1.422502        -0.324201
 H         2.299265         1.025017        -2.210445
 H         2.152099         1.962819        -0.712510
 H         4.595612         1.338047        -0.731225
 H         3.972582         0.856534         1.907559
 H         5.160403        -1.090161        -0.034367
 H         2.015924        -1.279502        -1.778633
 H         1.237712        -2.328556        -0.344074
