19
Iteration:  2740
 C         0.029868         0.274518        -0.284808
 C         1.556977         0.100699        -0.083490
 C         2.430133         0.620125        -1.246329
 C         3.751822         0.706397        -0.517149
 C         3.452146         0.458565         0.943576
 O         2.080625         0.509789         1.222620
 C         4.052459        -0.750702         0.152991
 O         3.252368        -1.749598        -0.402835
 C         1.869869        -1.411273        -0.082122
 H        -0.426502         1.068246         0.359773
 H        -0.053701         0.592046        -1.424142
 H        -0.512683        -0.664616        -0.154988
 H         2.547592        -0.066373        -2.047878
 H         2.196966         1.652668        -1.735889
 H         4.553372         1.433370        -0.897499
 H         4.079500         0.903248         1.767969
 H         5.106853        -1.017193         0.224785
 H         1.169239        -1.975746        -0.797953
 H         1.710798        -1.704606         0.876560
