19
Iteration:   137charge 0 multiplicity 1
 C         0.013780         0.473754        -0.229957
 C         1.530389         0.081348        -0.092635
 C         2.549654         1.290914         0.384166
 C         3.768277         0.481366         0.915436
 C         3.232993        -0.914639         1.101991
 O         1.789856        -0.924902         0.870270
 C         4.084626        -0.602144        -0.144121
 O         3.502695        -0.597178        -1.472555
 C         2.028853        -0.609577        -1.421619
 H         0.101465         1.570051        -0.177244
 H        -0.494563         0.108950        -1.102233
 H        -0.539289         0.235896         0.663639
 H         2.917119         1.799426        -0.579522
 H         2.041242         1.998339         1.077801
 H         4.546234         0.991836         1.420323
 H         3.426151        -1.715561         1.782718
 H         5.042492        -1.008003        -0.148071
 H         1.662377        -0.052438        -2.255198
 H         1.532051        -1.642190        -1.368692
