19
Iteration:  4361charge 0 multiplicity 1
 C         0.073318         0.223690        -0.142718
 C         1.551033         0.055524        -0.173366
 C         2.283942        -0.082223        -1.440340
 C         3.751362         0.183140        -1.008722
 C         3.564118         0.844099         0.321808
 O         2.188277         1.120922         0.591906
 C         4.023919        -0.616739         0.285293
 O         3.218852        -1.744831         0.486670
 C         1.833516        -1.272944         0.649421
 H        -0.488981        -0.652530         0.396129
 H        -0.123090         1.175178         0.381140
 H        -0.347348         0.215831        -1.133013
 H         2.312740        -1.108024        -1.841432
 H         1.934474         0.569359        -2.280107
 H         4.522003         0.324523        -1.757453
 H         4.297843         1.588326         0.646431
 H         5.117455        -0.746131         0.376957
 H         1.195466        -2.109566         0.223343
 H         1.513678        -0.902652         1.713540
