19
Iteration:  1268charge 0 multiplicity 1
 C         0.125240         0.324522        -0.208428
 C         1.620146         0.108115        -0.179630
 C         2.398618         1.439733        -0.373287
 C         3.773304         0.778225         0.040802
 C         3.382788        -0.114370         1.207918
 O         1.962166        -0.329704         1.165082
 C         4.021436        -0.756831        -0.022699
 O         3.244238        -1.629303        -0.748416
 C         2.010967        -1.037057        -1.142999
 H        -0.406353        -0.683788         0.112106
 H        -0.261402         1.132130         0.396108
 H        -0.373848         0.562449        -1.200360
 H         2.244728         1.819562        -1.435008
 H         1.950827         2.235127         0.368338
 H         4.733026         1.315100         0.177856
 H         3.866258        -0.198230         2.133701
 H         5.003379        -1.067142         0.006485
 H         2.110389        -0.577799        -2.146312
 H         1.259018        -1.765941        -1.074569
