19
Iteration:  3175
 C         0.081254         0.301689        -0.219105
 C         1.520709         0.030743        -0.167050
 C         2.412193         0.430699        -1.301537
 C         3.801318         0.548914        -0.802927
 C         3.538919         0.706155         0.751580
 O         2.147030         0.676306         0.999650
 C         4.050452        -0.606545         0.097863
 O         3.211841        -1.734572         0.141530
 C         1.729107        -1.588311         0.094017
 H        -0.005371         1.405707        -0.291963
 H        -0.362490        -0.123906        -1.200318
 H        -0.333824        -0.205788         0.619228
 H         2.474392        -0.296220        -2.188971
 H         2.053962         1.319554        -1.729064
 H         4.574309         1.086337        -1.400282
 H         4.116526         1.152552         1.614434
 H         5.026083        -0.974861         0.348671
 H         1.245156        -2.165701        -0.688869
 H         1.283027        -1.773204         1.108117
