19
Iteration:   240
 C         0.087054         0.436557        -0.143206
 C         1.538931         0.100404        -0.153454
 C         2.487571         1.359329         0.273708
 C         3.761600         0.594439         0.754320
 C         3.291151        -0.727243         1.192987
 O         1.876796        -0.968672         0.851579
 C         4.066477        -0.649702        -0.061111
 O         3.376142        -1.041370        -1.311839
 C         2.032866        -0.381554        -1.522228
 H        -0.370045        -0.140494        -1.011881
 H        -0.304240        -0.078756         0.779866
 H        -0.286015         1.482123        -0.282152
 H         2.478400         2.182310        -0.528137
 H         1.958204         1.870534         1.134012
 H         4.543363         1.165884         1.252084
 H         3.568871        -1.182071         2.101148
 H         5.150081        -0.991200        -0.214941
 H         2.057183         0.592142        -2.105569
 H         1.388134        -1.198482        -2.012870
