19
Iteration:   711
 C         0.045251         0.426034        -0.184879
 C         1.541099         0.090221        -0.175691
 C         2.496032         1.323367        -0.100412
 C         3.789568         0.729221         0.495278
 C         3.300828        -0.482930         1.223607
 O         1.917636        -0.643959         1.069397
 C         4.116262        -0.720202        -0.009850
 O         3.365992        -1.170608        -1.135013
 C         1.960435        -0.778725        -1.377993
 H        -0.295752         1.472270        -0.083080
 H        -0.459650        -0.027615        -0.943721
 H        -0.449462        -0.103853         0.690902
 H         2.599733         1.710645        -1.085241
 H         2.050327         2.051932         0.520013
 H         4.549421         1.405685         0.864052
 H         3.697894        -1.027917         2.125576
 H         5.053120        -1.246092         0.174636
 H         1.808884        -0.225356        -2.305099
 H         1.335028        -1.679828        -1.498819
