19
Iteration:   465charge 0 multiplicity 1
 C         0.102569         0.300869        -0.108879
 C         1.591670         0.180641        -0.168114
 C         2.461930         1.421760         0.046335
 C         3.736742         0.727989         0.548339
 C         3.246804        -0.637621         1.214623
 O         1.901718        -0.814544         0.912449
 C         4.042209        -0.696644        -0.102332
 O         3.273827        -1.273852        -1.119930
 C         2.164611        -0.455645        -1.414661
 H        -0.147758         1.384646        -0.211944
 H        -0.620293        -0.163307        -0.831785
 H        -0.226445        -0.067145         0.822773
 H         2.370415         2.043817        -0.815691
 H         2.030339         1.917831         0.858298
 H         4.536847         1.234734         1.011761
 H         3.533544        -0.903252         2.207003
 H         5.081556        -1.087548        -0.217420
 H         2.404391         0.488113        -2.037093
 H         1.486002        -1.202424        -1.805652
