19
Iteration:  3495charge 0 multiplicity 1
 C         0.048184         0.176332        -0.136976
 C         1.592149         0.002455        -0.104425
 C         2.365905         0.259904        -1.501735
 C         3.814991         0.390705        -0.948078
 C         3.595975         0.785691         0.588929
 O         2.212759         0.892968         0.849714
 C         3.957500        -0.612863         0.244362
 O         3.114473        -1.753184         0.279220
 C         1.800552        -1.408075         0.302989
 H        -0.564444        -0.494973         0.544987
 H        -0.142715         1.148000         0.099091
 H        -0.194003         0.067980        -1.210011
 H         2.405378        -0.603626        -2.219120
 H         2.071764         1.212238        -1.963623
 H         4.794953         0.551098        -1.456958
 H         4.101464         1.604682         1.133162
 H         4.995550        -0.945099         0.331669
 H         1.176011        -2.097564        -0.267788
 H         1.437806        -1.430879         1.486624
