19
Iteration:  2961
 C         0.075892         0.322066        -0.251344
 C         1.560682        -0.039556        -0.137490
 C         2.372012         0.607143        -1.256545
 C         3.777120         0.645292        -0.690582
 C         3.488789         0.563590         0.784117
 O         2.101803         0.643803         1.036919
 C         4.070748        -0.711616         0.177419
 O         3.228615        -1.794742        -0.121762
 C         1.829999        -1.542891         0.055119
 H        -0.071247         1.230133         0.407466
 H        -0.123208         0.537562        -1.280803
 H        -0.580862        -0.514589         0.028928
 H         2.295747         0.248858        -2.269717
 H         2.009735         1.694270        -1.250000
 H         4.600927         1.260129        -1.027842
 H         4.079760         1.150222         1.555893
 H         5.041758        -0.967815         0.503181
 H         1.257296        -2.065446        -0.776499
 H         1.521474        -1.924279         1.173018
