19
Iteration:    63charge 0 multiplicity 1
 C         0.112069         0.342832        -0.196701
 C         1.545829         0.193838        -0.104459
 C         2.433270         1.282489         0.497167
 C         3.714586         0.491032         0.826016
 C         3.285737        -0.884436         1.089370
 O         1.866060        -0.961997         0.707695
 C         4.169896        -0.652543        -0.165690
 O         3.295913        -0.910052        -1.279543
 C         2.130061        -0.164488        -1.480411
 H        -0.380303        -0.711776        -0.598279
 H        -0.241517         0.514596         0.837113
 H        -0.270951         1.056807        -0.914797
 H         2.648395         2.085667        -0.294060
 H         2.026427         1.679370         1.444068
 H         4.396852         1.022508         1.434450
 H         3.379186        -1.568889         1.900529
 H         5.108976        -1.044311        -0.290326
 H         2.120161         0.778360        -2.121584
 H         1.341626        -0.829053        -1.995160
