19
Iteration:  4584
 C         0.007039         0.270121        -0.168113
 C         1.503889         0.023642        -0.057406
 C         2.258740        -0.086621        -1.493206
 C         3.734348        -0.025639        -1.125833
 C         3.607604         0.855691         0.182574
 O         2.210843         1.168008         0.484539
 C         4.056810        -0.590660         0.259028
 O         3.249533        -1.639129         0.768591
 C         1.879339        -1.332866         0.712253
 H        -0.397317         1.222533         0.100773
 H        -0.230264         0.213585        -1.208234
 H        -0.506980        -0.594373         0.397490
 H         1.955116        -0.947686        -2.138829
 H         2.120856         0.840192        -2.071769
 H         4.597933         0.252827        -1.764488
 H         4.208987         1.757723         0.361355
 H         5.094880        -0.820814         0.555719
 H         1.336397        -2.132375         0.126220
 H         1.307889        -1.230533         1.766209
