19
Iteration:  4938
 C         0.096438         0.346030        -0.274175
 C         1.516631        -0.000817         0.010872
 C         2.236118        -0.257901        -1.416447
 C         3.682385         0.165132        -1.100163
 C         3.571404         0.786840         0.274138
 O         2.192723         1.233369         0.563706
 C         4.067020        -0.601484         0.147176
 O         3.240001        -1.719160         0.595901
 C         1.895131        -1.278274         0.751426
 H         0.013494         1.341641        -0.846209
 H        -0.333204        -0.357764        -0.974454
 H        -0.511099         0.317749         0.584162
 H         2.075168        -1.375128        -1.680005
 H         1.874218         0.389558        -2.269933
 H         4.381689         0.425579        -1.839350
 H         4.238440         1.545018         0.783306
 H         4.997961        -0.665682         0.616063
 H         1.262711        -2.228399         0.372446
 H         1.720180        -1.145098         1.867605
