19
Iteration:  3299charge 0 multiplicity 1
 C         0.064097         0.408521        -0.257395
 C         1.504207        -0.099064        -0.144250
 C         2.327899         0.385045        -1.297498
 C         3.756899         0.519813        -0.819867
 C         3.532530         0.738273         0.660857
 O         2.143935         0.783672         0.867566
 C         3.989485        -0.643878         0.240331
 O         3.279683        -1.835553         0.137476
 C         1.864249        -1.559367         0.269654
 H        -0.571986        -0.553191        -0.498439
 H        -0.081588         0.955799         0.657213
 H        -0.007301         1.149548        -1.144342
 H         2.235863        -0.238763        -2.178397
 H         2.023663         1.418464        -1.681003
 H         4.576403         0.780748        -1.456073
 H         4.133670         1.510306         1.238231
 H         5.058048        -0.887497         0.229720
 H         1.346188        -2.242521        -0.416177
 H         1.458125        -1.687969         1.230036
