19
Iteration:  2749charge 0 multiplicity 1
 C         0.045404         0.283935        -0.300014
 C         1.537916         0.069156        -0.137956
 C         2.419109         0.675969        -1.259943
 C         3.775434         0.672294        -0.526436
 C         3.493153         0.448246         0.960126
 O         2.104146         0.499935         1.194289
 C         4.041621        -0.661256         0.170173
 O         3.223152        -1.768481        -0.392447
 C         1.882105        -1.451442        -0.060989
 H        -0.454037         0.891304         0.480997
 H        -0.299133         0.819895        -1.217958
 H        -0.480534        -0.728037        -0.368904
 H         2.282822        -0.012011        -1.986480
 H         2.068446         1.747367        -1.599807
 H         4.721584         1.184687        -0.745819
 H         4.105067         0.978927         1.720813
 H         5.041825        -0.900953         0.414710
 H         1.237140        -1.985347        -0.762295
 H         1.625337        -1.778289         0.969614
