19
Iteration:   686charge 0 multiplicity 1
 C         0.087358         0.241459        -0.163159
 C         1.584050         0.161959        -0.141695
 C         2.549444         1.489371         0.039607
 C         3.711008         0.679010         0.362155
 C         3.247152        -0.493126         1.234278
 O         1.862146        -0.596893         1.063840
 C         4.014899        -0.735895        -0.073667
 O         3.298426        -1.355295        -1.125210
 C         2.155447        -0.646110        -1.400050
 H        -0.445201         1.068417        -0.553461
 H        -0.336416        -0.736259        -0.533804
 H        -0.339633         0.179846         0.822924
 H         2.563162         2.113822        -0.903380
 H         2.247433         2.117554         0.863577
 H         4.629933         1.240588         0.518402
 H         3.558985        -0.579972         2.217785
 H         5.122141        -0.977316         0.045131
 H         2.184453         0.081297        -2.180576
 H         1.467769        -1.300534        -1.754770
