19
Iteration:  4172
 C         0.056549         0.441468        -0.177582
 C         1.528437         0.020015        -0.135419
 C         2.234066        -0.041834        -1.531631
 C         3.679576         0.140463        -1.034360
 C         3.520782         0.788261         0.345396
 O         2.173699         1.004111         0.642030
 C         4.087522        -0.580096         0.253223
 O         3.312460        -1.701546         0.580204
 C         1.903805        -1.411281         0.593765
 H        -0.356635         0.611219         0.804803
 H         0.046989         1.433030        -0.799372
 H        -0.616527        -0.369311        -0.649563
 H         1.973807        -1.056349        -2.008952
 H         1.987134         0.734961        -2.205949
 H         4.257666         0.563452        -1.804908
 H         4.126570         1.656712         0.798205
 H         5.079681        -0.868109         0.470298
 H         1.247435        -2.241062         0.276731
 H         1.773381        -1.210621         1.684772
