19
Iteration:  2919
 C         0.096843         0.314524        -0.227542
 C         1.554393         0.037729        -0.130821
 C         2.462162         0.515256        -1.316657
 C         3.824960         0.659601        -0.592224
 C         3.402517         0.509111         0.872492
 O         2.043274         0.633177         1.092644
 C         4.044941        -0.671679         0.155659
 O         3.224136        -1.778634        -0.305722
 C         1.868010        -1.459531         0.075122
 H        -0.112069         1.286173        -0.775673
 H        -0.558834        -0.462393        -0.486154
 H        -0.331710         0.492203         0.820429
 H         2.369347        -0.272381        -2.129226
 H         2.097817         1.329803        -1.817966
 H         4.541386         1.454020        -0.827351
 H         4.125826         1.010145         1.572288
 H         4.983782        -1.024844         0.487536
 H         1.300269        -2.155085        -0.652986
 H         1.679301        -1.822306         1.057249
