19
Iteration:  3571charge 0 multiplicity 1
 C         0.055915         0.347718        -0.137181
 C         1.559816        -0.103782        -0.143646
 C         2.356409         0.186923        -1.472301
 C         3.739649         0.423487        -0.925663
 C         3.565296         0.758660         0.491888
 O         2.151256         0.890859         0.764269
 C         4.066620        -0.630844         0.242300
 O         3.229035        -1.756983         0.324860
 C         1.770522        -1.434321         0.444318
 H        -0.553845        -0.211475        -0.909564
 H        -0.372734         0.270810         0.808369
 H         0.083026         1.441235        -0.427874
 H         2.244221        -0.724019        -2.124109
 H         2.019323         1.080548        -1.987827
 H         4.544687         0.906848        -1.509884
 H         4.157905         1.508275         0.942986
 H         5.139609        -0.925146         0.441096
 H         1.299319        -2.228459        -0.176697
 H         1.405287        -1.461166         1.402154
