19
Iteration:  4606
 C         0.098787         0.212667        -0.141583
 C         1.582925        -0.016886        -0.112197
 C         2.178778        -0.087156        -1.536301
 C         3.638953         0.009391        -1.086586
 C         3.640050         0.899527         0.196639
 O         2.269940         1.132950         0.484512
 C         4.027870        -0.595170         0.277935
 O         3.232911        -1.560109         0.908293
 C         1.848840        -1.338161         0.532558
 H         0.034472         1.074982         0.485710
 H        -0.361977         0.616473        -1.027557
 H        -0.539102        -0.552044         0.430228
 H         1.962954        -1.114157        -1.929840
 H         1.851534         0.723163        -2.234537
 H         4.328561        -0.070145        -1.940903
 H         4.268412         1.802112         0.473769
 H         5.073693        -0.712504         0.571220
 H         1.481037        -2.090114        -0.235747
 H         1.089807        -1.463534         1.445963
