19
Iteration:  1556charge 0 multiplicity 1
 C         0.096949         0.367423        -0.269616
 C         1.622836         0.073517        -0.093931
 C         2.571542         1.140287        -0.730178
 C         3.750670         0.775579         0.133051
 C         3.296389        -0.110622         1.225513
 O         1.885967        -0.129622         1.281113
 C         4.025894        -0.794020         0.003855
 O         3.287948        -1.275805        -1.069517
 C         1.947510        -1.274820        -0.706323
 H        -0.253342         0.194855         0.671286
 H        -0.047021         1.381176        -0.703644
 H        -0.395761        -0.366004        -0.914254
 H         2.827333         0.726511        -1.722847
 H         2.393191         2.171799        -0.641484
 H         4.618906         1.476625         0.379683
 H         3.776362        -0.024613         2.238415
 H         5.011666        -1.180143         0.077227
 H         1.284160        -1.575809        -1.633148
 H         1.673004        -2.087615        -0.025884
