19
Iteration:  2144
 C         0.048540         0.325472        -0.270162
 C         1.565384         0.071943        -0.138360
 C         2.566143         0.944479        -0.989787
 C         3.814035         0.758851        -0.077399
 C         3.374001         0.146867         1.162595
 O         1.945229         0.188154         1.314908
 C         4.032857        -0.740442         0.019197
 O         3.264909        -1.520866        -0.834674
 C         1.918659        -1.391327        -0.491548
 H        -0.433534        -0.692042        -0.017148
 H        -0.233067         1.012767         0.557652
 H        -0.310447         0.665900        -1.216336
 H         2.728891         0.406781        -1.827371
 H         2.305295         2.014928        -1.093139
 H         4.471841         1.603057        -0.212098
 H         3.906679         0.232803         2.059097
 H         5.007682        -1.162130         0.162377
 H         1.274149        -1.775787        -1.260039
 H         1.502742        -2.010852         0.452995
