19
Iteration:   874
 C         0.079861         0.403366        -0.124204
 C         1.546426         0.141052        -0.126746
 C         2.422654         1.342542        -0.157390
 C         3.706512         0.770288         0.345314
 C         3.296417        -0.358888         1.194600
 O         1.965581        -0.622370         1.039645
 C         4.064905        -0.700297        -0.071350
 O         3.304232        -1.441429        -0.959461
 C         2.074994        -0.778642        -1.321615
 H        -0.362680         0.488843        -1.172482
 H        -0.429514        -0.342097         0.428629
 H        -0.074037         1.348602         0.465936
 H         2.472131         1.681188        -1.225806
 H         2.033827         2.140318         0.465699
 H         4.545231         1.471228         0.593893
 H         3.711314        -0.721863         2.173886
 H         5.076696        -0.982841        -0.046314
 H         2.443381        -0.128514        -2.134045
 H         1.380082        -1.438542        -1.838147
