19
Iteration:  4587charge 0 multiplicity 1
 C         0.030968         0.274263        -0.149474
 C         1.498110         0.027220        -0.086368
 C         2.262725        -0.089215        -1.449920
 C         3.717307        -0.033621        -1.125932
 C         3.588294         0.845245         0.154836
 O         2.220773         1.186562         0.489745
 C         4.036413        -0.572885         0.269838
 O         3.254770        -1.642860         0.790764
 C         1.869550        -1.348588         0.679412
 H        -0.334223         1.204411         0.131838
 H        -0.245487         0.181229        -1.269591
 H        -0.380112        -0.624554         0.321120
 H         1.917981        -0.897868        -2.125351
 H         2.131150         0.776628        -2.004032
 H         4.543423         0.251576        -1.699463
 H         4.282503         1.737505         0.358529
 H         5.055318        -0.797808         0.495967
 H         1.398962        -2.149724         0.030832
 H         1.406316        -1.221575         1.651436
