19
Iteration:  4596charge 0 multiplicity 1
 C         0.087619         0.248667        -0.162609
 C         1.583427         0.024847        -0.156019
 C         2.234342        -0.085529        -1.418035
 C         3.676982        -0.030738        -1.055029
 C         3.549277         0.860049         0.127632
 O         2.262731         1.191391         0.493471
 C         3.997064        -0.569360         0.285551
 O         3.266217        -1.620313         0.852922
 C         1.832267        -1.337525         0.554184
 H        -0.109213         1.074550         0.407887
 H        -0.361302         0.234358        -1.179125
 H        -0.490370        -0.591506         0.391773
 H         1.845715        -0.998233        -1.948336
 H         1.931662         0.789919        -1.950181
 H         4.328269         0.137652        -1.900881
 H         4.390546         1.577417         0.388384
 H         5.064592        -0.656906         0.418435
 H         1.430564        -2.232212        -0.043794
 H         1.402762        -1.405007         1.652118
