19
Iteration:  4220charge 0 multiplicity 1
 C        -0.007085         0.209121        -0.118557
 C         1.522484        -0.059809        -0.161908
 C         2.242059         0.138061        -1.519448
 C         3.734802         0.212712        -1.083037
 C         3.714943         0.752662         0.277055
 O         2.303670         0.945306         0.664199
 C         4.053120        -0.657280         0.146343
 O         3.152176        -1.480433         0.824330
 C         1.784545        -1.400143         0.458472
 H        -0.303512         1.014217         0.743903
 H        -0.295187         0.605115        -1.147902
 H        -0.567631        -0.648815         0.182823
 H         2.101054        -0.694293        -2.169203
 H         1.845814         1.144427        -1.966080
 H         4.714265         0.425369        -1.629096
 H         4.188676         1.602070         0.625724
 H         5.065855        -1.059056         0.458614
 H         1.657685        -2.282210        -0.281996
 H         1.186955        -1.502792         1.269572
