19
Iteration:   297
 C         0.053950         0.358781        -0.227315
 C         1.580458         0.164736        -0.111826
 C         2.499647         1.342491         0.258676
 C         3.735919         0.599600         0.689929
 C         3.258995        -0.708472         1.174719
 O         1.879207        -0.850978         0.975554
 C         4.005314        -0.680930        -0.143785
 O         3.363309        -1.027477        -1.330360
 C         2.120723        -0.444326        -1.418643
 H        -0.312259         1.331211        -0.119990
 H        -0.338121         0.024084        -1.175458
 H        -0.460269        -0.335978         0.566172
 H         2.668473         1.916310        -0.614283
 H         2.219397         1.992888         1.107709
 H         4.537351         1.157020         1.125813
 H         3.757442        -1.172609         2.037446
 H         4.977486        -1.031617        -0.081313
 H         1.963042         0.254876        -2.280182
 H         1.463650        -1.327134        -1.707128
