19
Iteration:  1245charge 0 multiplicity 1
 C         0.019518         0.379041        -0.064595
 C         1.527046         0.097024        -0.232669
 C         2.488491         1.324516        -0.440921
 C         3.784593         0.840202         0.134008
 C         3.377783        -0.176207         1.198418
 O         1.943931        -0.380189         1.091692
 C         4.082276        -0.731291        -0.000614
 O         3.249241        -1.616394        -0.702978
 C         2.048664        -0.981059        -1.228492
 H        -0.416509        -0.229731         0.844668
 H        -0.305105         1.403766        -0.070061
 H        -0.638015        -0.044925        -0.876572
 H         2.342693         1.577011        -1.497760
 H         2.175525         2.300269         0.177728
 H         4.615558         1.518290         0.035058
 H         3.716476        -0.070430         2.218954
 H         5.126940        -1.014645        -0.001369
 H         2.405816        -0.420727        -2.096728
 H         1.361851        -1.768806        -1.469712
