19
Iteration:  2867
 C         0.121415         0.314029        -0.172563
 C         1.560371         0.081272        -0.177365
 C         2.363485         0.800683        -1.258688
 C         3.721725         0.607022        -0.657387
 C         3.450938         0.477574         0.830632
 O         2.045138         0.506248         1.050336
 C         4.080743        -0.717637         0.124274
 O         3.265508        -1.847372         0.055675
 C         1.888828        -1.477249        -0.168008
 H        -0.282399        -0.119004        -1.097006
 H        -0.332963        -0.216638         0.654255
 H        -0.260394         1.430478        -0.158177
 H         2.180193         0.360616        -2.366451
 H         2.207536         1.883694        -1.343950
 H         4.560307         1.231431        -1.065126
 H         4.127434         1.076318         1.493435
 H         5.135550        -0.933559         0.202858
 H         1.603982        -2.040246        -1.106751
 H         1.259866        -1.884889         0.725229
