19
Iteration:  4591charge 0 multiplicity 1
 C         0.060629         0.258486        -0.154906
 C         1.521092         0.029454        -0.126668
 C         2.261186        -0.101774        -1.407620
 C         3.692112        -0.039453        -1.097262
 C         3.570169         0.849160         0.132149
 O         2.238033         1.197744         0.494067
 C         4.010103        -0.559571         0.277955
 O         3.260520        -1.640144         0.818662
 C         1.848603        -1.356014         0.622574
 H        -0.286992         1.304761         0.286356
 H        -0.260045         0.157081        -1.192941
 H        -0.354355        -0.631912         0.286393
 H         1.880287        -0.881587        -2.053391
 H         2.043647         0.879134        -2.027730
 H         4.531887         0.253280        -1.789086
 H         4.285997         1.583671         0.345039
 H         5.086597        -0.752386         0.440038
 H         1.472668        -2.140085         0.002824
 H         1.481270        -1.269010         1.632513
