19
Iteration:  2681
 C         0.016984         0.351310        -0.177485
 C         1.541086         0.053646        -0.196602
 C         2.415537         0.809928        -1.204037
 C         3.843415         0.647914        -0.557561
 C         3.385980         0.408070         0.929863
 O         2.027280         0.401673         1.112335
 C         4.088542        -0.651611         0.115532
 O         3.324735        -1.831410        -0.169345
 C         1.854630        -1.459008        -0.269108
 H        -0.316457         1.078212        -0.938168
 H        -0.594747        -0.547070        -0.217742
 H        -0.023730         0.830846         0.974605
 H         2.389057         0.409885        -2.246123
 H         2.140129         1.937109        -1.103596
 H         4.646022         1.316518        -0.773715
 H         3.854902         1.059558         1.632791
 H         5.165295        -0.970496         0.247657
 H         1.458518        -1.895919        -1.113928
 H         1.315939        -1.912242         0.637773
