19
Iteration:  4171charge 0 multiplicity 1
 C         0.054426         0.452094        -0.174137
 C         1.526224         0.016296        -0.135548
 C         2.242072        -0.046001        -1.523895
 C         3.671837         0.141854        -1.034036
 C         3.522943         0.790740         0.345987
 O         2.168150         1.007863         0.631391
 C         4.092028        -0.579874         0.253129
 O         3.315009        -1.708119         0.572839
 C         1.899033        -1.411212         0.598074
 H        -0.350247         0.570932         0.784674
 H         0.035563         1.422092        -0.757281
 H        -0.621108        -0.356999        -0.658638
 H         1.993739        -1.043113        -2.040469
 H         2.021370         0.738291        -2.194681
 H         4.269873         0.553574        -1.802615
 H         4.099133         1.651170         0.823151
 H         5.111253        -0.868140         0.465891
 H         1.272109        -2.252165         0.303869
 H         1.761350        -1.199190         1.735146
