19
Iteration:   859
 C         0.084699         0.500999        -0.026685
 C         1.564787         0.068506        -0.167788
 C         2.397762         1.404286        -0.146059
 C         3.704239         0.817345         0.247365
 C         3.317796        -0.448364         1.236203
 O         1.906612        -0.707178         0.965646
 C         4.022534        -0.620860        -0.043941
 O         3.326094        -1.526790        -0.910200
 C         2.174118        -0.722800        -1.383304
 H        -0.501549         0.193371        -0.858602
 H        -0.454637        -0.100161         0.746006
 H        -0.085571         1.530475        -0.038009
 H         2.341508         1.850126        -1.190797
 H         2.073768         2.108699         0.656630
 H         4.555515         1.399291         0.524803
 H         3.620410        -0.521989         2.302996
 H         5.136277        -0.788363        -0.023633
 H         2.382274        -0.011528        -2.247293
 H         1.433684        -1.583654        -1.496282
