19
Iteration:   977
 C         0.180870         0.550695        -0.114145
 C         1.542434         0.042870        -0.143457
 C         2.550881         1.204577        -0.411948
 C         3.696540         0.736895         0.341599
 C         3.244629        -0.378207         1.253363
 O         1.852173        -0.558088         1.196966
 C         4.076024        -0.664519         0.004655
 O         3.396847        -1.064065        -1.217689
 C         1.922014        -1.153884        -1.101983
 H        -0.123495         1.179747         0.737155
 H        -0.109927         1.043605        -1.181689
 H        -0.560936        -0.327350        -0.064502
 H         2.959763         1.371390        -1.401162
 H         2.194049         2.195919         0.000669
 H         4.402374         1.480347         0.665895
 H         3.756603        -0.530938         2.257566
 H         5.104570        -1.071109         0.123112
 H         1.688722        -1.016700        -2.163630
 H         1.557116        -2.087411        -0.726631
