19
Iteration:  3887
 C         0.080204         0.242512        -0.143499
 C         1.551419        -0.018160        -0.193215
 C         2.313043         0.147898        -1.569976
 C         3.734548         0.188301        -1.037398
 C         3.583282         0.840891         0.353946
 O         2.245087         0.985953         0.721111
 C         4.039663        -0.661454         0.167433
 O         3.196782        -1.686677         0.628912
 C         1.749984        -1.388130         0.597075
 H        -0.307723         0.334200        -1.158661
 H        -0.417158        -0.554516         0.368835
 H        -0.152300         1.234072         0.374010
 H         2.025725        -0.588988        -2.438276
 H         2.008884         1.127510        -1.987424
 H         4.603900         0.481925        -1.634761
 H         4.201237         1.712182         0.657073
 H         5.040168        -0.745647         0.483025
 H         1.419891        -2.286524        -0.116284
 H         1.306499        -1.346867         1.646743
