19
Iteration:  3900
 C         0.091607         0.370437        -0.147241
 C         1.545600        -0.071429        -0.178969
 C         2.295015         0.046104        -1.513040
 C         3.736090         0.274550        -1.069780
 C         3.564564         0.779965         0.340744
 O         2.142512         0.926309         0.667500
 C         4.080076        -0.595788         0.271011
 O         3.228922        -1.730337         0.585269
 C         1.842027        -1.330779         0.537776
 H        -0.279202         0.713416        -1.079235
 H        -0.614469        -0.457598         0.180089
 H         0.032933         1.165107         0.644323
 H         2.092138        -0.832402        -2.283975
 H         1.996411         1.047568        -1.938122
 H         4.455103         0.643405        -1.837219
 H         4.156162         1.452050         0.867136
 H         5.117363        -0.942543         0.480794
 H         1.168706        -2.191678         0.303895
 H         1.496621        -1.034453         1.612268
