19
Iteration:  4678charge 0 multiplicity 1
 C         0.080036         0.324199        -0.240488
 C         1.505178         0.005191        -0.105164
 C         2.169507        -0.156947        -1.435854
 C         3.710247         0.056826        -1.117857
 C         3.605661         0.877803         0.149601
 O         2.215178         1.159525         0.499904
 C         4.048398        -0.589496         0.176354
 O         3.277183        -1.617415         0.920495
 C         1.897621        -1.390994         0.712821
 H        -0.631263         0.104615         0.693788
 H        -0.022064         1.413829        -0.187520
 H        -0.313541        -0.114291        -1.134547
 H         1.889652        -1.112501        -1.824484
 H         1.744160         0.577284        -2.166404
 H         4.306954         0.131479        -2.071222
 H         4.290378         1.657553         0.328772
 H         5.139122        -0.691286         0.394897
 H         1.560875        -2.145065        -0.150694
 H         1.386332        -1.624434         1.611076
