19
Iteration:  4446charge 0 multiplicity 1
 C        -0.032374         0.289578        -0.159560
 C         1.525528         0.014061        -0.136003
 C         2.223840        -0.019806        -1.450103
 C         3.733329         0.072624        -1.106180
 C         3.635085         0.849753         0.195308
 O         2.288147         0.972875         0.630891
 C         4.054079        -0.573347         0.184367
 O         3.200652        -1.541775         0.891440
 C         1.875344        -1.401647         0.492156
 H        -0.448260        -0.309689        -0.939691
 H        -0.609840         0.256242         0.835921
 H        -0.215901         1.304375        -0.531329
 H         1.872256        -0.855941        -2.145406
 H         2.012472         0.897946        -2.032185
 H         4.444394         0.145932        -1.944598
 H         4.256064         1.734352         0.474808
 H         5.107254        -0.812407         0.409307
 H         1.737460        -2.134407        -0.265580
 H         1.272904        -1.513974         1.437534
