19
Iteration:  1101
 C         0.090626         0.415187        -0.124091
 C         1.583462         0.076441        -0.230948
 C         2.480049         1.336421        -0.342080
 C         3.817166         0.793659         0.232474
 C         3.266255        -0.244928         1.263488
 O         1.901156        -0.439710         1.110261
 C         4.061530        -0.722510         0.035024
 O         3.384049        -1.389530        -1.030068
 C         1.937611        -1.052000        -1.157972
 H        -0.717367         0.001280        -0.824130
 H        -0.303078        -0.002732         0.914241
 H        -0.155205         1.483143         0.011551
 H         2.473278         1.558914        -1.427405
 H         2.083121         2.233333         0.005502
 H         4.699894         1.348743         0.605113
 H         3.695669        -0.413616         2.228711
 H         5.122539        -1.083029         0.101155
 H         1.721083        -0.749216        -2.166608
 H         1.396820        -1.996162        -0.989741
