19
Iteration:   294
 C         0.056768         0.364797        -0.232549
 C         1.585959         0.155920        -0.109304
 C         2.494114         1.356357         0.291937
 C         3.738344         0.616484         0.677246
 C         3.254520        -0.715173         1.163563
 O         1.867053        -0.866413         0.983431
 C         4.012947        -0.675545        -0.144585
 O         3.368315        -1.056201        -1.349742
 C         2.143111        -0.441082        -1.406934
 H        -0.390949         1.391877        -0.178116
 H        -0.448496        -0.068023        -1.144610
 H        -0.378109        -0.178073         0.595415
 H         2.568651         1.934397        -0.725713
 H         2.190634         2.038487         1.158396
 H         4.504424         1.185269         1.164621
 H         3.714603        -1.114837         2.016508
 H         5.061871        -1.055790        -0.111217
 H         2.006138         0.253917        -2.220914
 H         1.394407        -1.233242        -1.722922
