19
Iteration:  3044
 C         0.086254         0.314593        -0.112046
 C         1.550878        -0.022983        -0.240040
 C         2.327922         0.670801        -1.344348
 C         3.684930         0.511103        -0.733817
 C         3.537357         0.692495         0.756460
 O         2.154814         0.600887         0.977429
 C         4.026650        -0.619794         0.234318
 O         3.224590        -1.855749         0.245658
 C         1.895116        -1.557220        -0.196675
 H        -0.698564        -0.409591         0.164021
 H         0.097864         1.171859         0.676690
 H        -0.311052         0.787736        -1.050697
 H         2.175610         0.196980        -2.379626
 H         2.094785         1.738984        -1.281528
 H         4.544147         0.918406        -1.187473
 H         4.083074         1.339417         1.442366
 H         5.050896        -0.932534         0.354729
 H         1.715853        -2.128591        -1.249927
 H         1.289250        -2.111472         0.462693
