19
Iteration:  3594charge 0 multiplicity 1
 C        -0.031804         0.245647        -0.144423
 C         1.531979         0.059476        -0.122225
 C         2.343015         0.155434        -1.459399
 C         3.761970         0.313726        -0.994069
 C         3.647717         0.759085         0.576085
 O         2.226159         0.923294         0.828220
 C         4.014602        -0.630609         0.150547
 O         3.181999        -1.680760         0.485045
 C         1.839130        -1.392391         0.252384
 H        -0.324361        -0.062622        -1.164634
 H        -0.381407        -0.477732         0.496490
 H        -0.505974         1.248997         0.120999
 H         1.955705        -0.763976        -1.868504
 H         2.100637         1.006448        -2.155731
 H         4.575951         0.587148        -1.672432
 H         4.281684         1.456397         1.025113
 H         5.091881        -0.952661         0.306494
 H         1.417306        -2.117065        -0.459976
 H         1.403788        -1.545726         1.142622
