19
Iteration:  2040charge 0 multiplicity 1
 C         0.103689         0.281707        -0.082815
 C         1.609204         0.100554        -0.156026
 C         2.448975         1.181754        -0.795428
 C         3.749373         0.743156        -0.207957
 C         3.420016         0.253440         1.098467
 O         2.060935        -0.073735         1.148448
 C         4.019531        -0.725121         0.114647
 O         3.140037        -1.733228        -0.417308
 C         1.956777        -1.216892        -0.950268
 H        -0.374479         1.209976        -0.353534
 H        -0.324594        -0.372894        -0.883248
 H        -0.231107        -0.075333         0.945394
 H         2.440123         0.995626        -1.971018
 H         2.134231         2.187251        -0.675836
 H         4.601869         1.349034        -0.409887
 H         3.819878         0.458821         2.043097
 H         5.095727        -1.087360         0.133474
 H         2.284537        -0.917821        -2.017963
 H         1.063156        -1.914786        -0.876473
