19
Iteration:   433
 C        -0.043916         0.301240        -0.117702
 C         1.581611         0.154543        -0.144698
 C         2.491557         1.380258         0.173105
 C         3.810920         0.641817         0.580156
 C         3.261520        -0.635503         1.193235
 O         1.853610        -0.651294         1.022689
 C         4.041451        -0.728143        -0.089862
 O         3.423388        -1.163316        -1.293037
 C         2.110672        -0.566103        -1.464902
 H        -0.263515         0.902184        -1.034221
 H        -0.501765        -0.714355        -0.178634
 H        -0.393430         0.964917         0.559659
 H         2.423032         2.080900        -0.641079
 H         2.102605         1.779169         1.031304
 H         4.562957         1.225918         1.042341
 H         3.518740        -1.032424         2.142832
 H         5.012438        -1.247021        -0.133207
 H         2.056831         0.165822        -2.346245
 H         1.425159        -1.331285        -1.823280
