19
Iteration:  1150charge 0 multiplicity 1
 C         0.127923         0.394258        -0.335849
 C         1.580496         0.090735        -0.040169
 C         2.588904         1.124132        -0.418893
 C         3.790701         0.737888         0.298839
 C         3.258157        -0.311078         1.245290
 O         1.858239        -0.289380         1.329437
 C         4.016657        -0.721545        -0.093006
 O         3.323078        -1.081131        -1.285547
 C         1.955799        -1.231794        -0.885632
 H         0.132555         1.290672        -0.966379
 H        -0.389061        -0.346479        -0.921935
 H        -0.491830         0.718557         0.521002
 H         2.762689         1.259326        -1.550356
 H         2.133041         2.138107         0.087669
 H         4.556575         1.491491         0.479502
 H         3.784775        -0.498479         2.180942
 H         4.936865        -1.202418         0.095580
 H         1.377975        -1.414543        -1.860434
 H         1.885814        -2.144643        -0.159213
