19
Iteration:  4618
 C         0.040445         0.320240        -0.029889
 C         1.523659        -0.022191        -0.179252
 C         2.217290        -0.129425        -1.587350
 C         3.700218         0.053844        -1.152364
 C         3.669411         0.852249         0.208073
 O         2.259064         1.033726         0.501943
 C         4.052713        -0.553480         0.244202
 O         3.174500        -1.471709         0.966247
 C         1.853735        -1.374311         0.554433
 H        -0.195925         1.013313         0.696965
 H        -0.244026         0.502833        -1.095616
 H        -0.530739        -0.658772         0.113520
 H         2.023613        -1.089988        -2.140191
 H         1.935134         0.665987        -2.267062
 H         4.583518         0.192085        -1.734717
 H         4.285525         1.794521         0.458668
 H         5.044371        -0.966938         0.279911
 H         1.647250        -2.267222        -0.159891
 H         1.248733        -1.547092         1.555372
