19
Iteration:  2589
 C         0.067893         0.364512        -0.146227
 C         1.495241         0.034615        -0.162240
 C         2.457726         0.842462        -1.149218
 C         3.799136         0.717362        -0.461140
 C         3.464947         0.483754         0.968727
 O         2.060024         0.368081         1.117469
 C         4.085501        -0.700652         0.067092
 O         3.241768        -1.801471        -0.185836
 C         1.828666        -1.532714        -0.421474
 H        -0.479722        -0.567009         0.204638
 H        -0.154005         1.188803         0.612465
 H        -0.233236         0.634703        -1.139053
 H         2.448126         0.525359        -2.303527
 H         2.154774         1.850072        -1.130352
 H         4.585356         1.441207        -0.725235
 H         3.874217         0.847967         1.905931
 H         5.075054        -1.014012         0.245833
 H         1.604945        -1.899675        -1.370789
 H         1.325844        -2.228005         0.325518
