19
Iteration:  4593
 C         0.072631         0.256092        -0.162496
 C         1.544222         0.029157        -0.143297
 C         2.254133        -0.099467        -1.401213
 C         3.683661        -0.038456        -1.078152
 C         3.560525         0.853020         0.126678
 O         2.247911         1.197893         0.494686
 C         4.001064        -0.559790         0.280981
 O         3.263349        -1.634581         0.832418
 C         1.841450        -1.351277         0.590017
 H        -0.227235         1.248278         0.345635
 H        -0.278928         0.171993        -1.141518
 H        -0.410553        -0.648801         0.326029
 H         1.859654        -0.919490        -2.016155
 H         1.991245         0.884177        -2.013049
 H         4.483277         0.226810        -1.850347
 H         4.311513         1.546024         0.352501
 H         5.095933        -0.717968         0.423242
 H         1.470702        -2.170719        -0.014147
 H         1.457618        -1.315173         1.691283
