19
Iteration:  1952
 C        -0.076065         0.429045        -0.225600
 C         1.529831         0.013727        -0.125949
 C         2.506087         1.038365        -0.829814
 C         3.824826         0.827672        -0.011720
 C         3.432760         0.055829         1.224215
 O         1.990360        -0.028115         1.194463
 C         4.138845        -0.675693         0.033612
 O         3.309257        -1.511590        -0.862412
 C         1.857860        -1.382812        -0.640129
 H        -0.619017        -0.169995        -1.013815
 H        -0.640563         0.455589         0.697294
 H         0.080712         1.436039        -0.603587
 H         2.756250         0.628934        -1.873737
 H         2.184779         1.999902        -0.686909
 H         4.582826         1.632001        -0.004744
 H         3.839270         0.105363         2.216875
 H         5.117255        -1.063388         0.147722
 H         1.250951        -1.553515        -1.582849
 H         1.504249        -2.157353         0.158591
