19
Iteration:  4779
 C         0.068837         0.326804        -0.202477
 C         1.571608        -0.038306        -0.108072
 C         2.273789        -0.219251        -1.477895
 C         3.655952        -0.007356        -1.117796
 C         3.549465         0.913132         0.137283
 O         2.250210         1.116992         0.593499
 C         4.063796        -0.579074         0.249510
 O         3.247561        -1.593578         0.734869
 C         1.840910        -1.291661         0.740562
 H        -0.475896         0.212620         0.799102
 H        -0.052097         1.348008        -0.512449
 H        -0.471339        -0.257514        -1.069277
 H         1.881800        -1.134125        -1.885898
 H         1.890470         0.581766        -2.187146
 H         4.376537         0.191132        -1.850123
 H         4.051607         1.900026         0.300485
 H         5.106606        -0.691732         0.417228
 H         1.310749        -2.178708         0.173383
 H         1.554437        -1.211898         1.795664
