19
Iteration:   396
 C         0.114308         0.454002        -0.228158
 C         1.617728         0.096697        -0.058409
 C         2.529115         1.308160         0.059183
 C         3.773031         0.653124         0.652509
 C         3.213833        -0.749506         1.248555
 O         1.849521        -0.826477         1.044012
 C         4.012014        -0.656765        -0.095500
 O         3.377405        -0.810789        -1.421680
 C         2.010627        -0.771543        -1.313218
 H        -0.141993        -0.163832        -1.062887
 H        -0.635660         0.280773         0.498506
 H        -0.029921         1.592277        -0.468699
 H         2.698082         1.719165        -0.924374
 H         2.090400         2.121967         0.739587
 H         4.624393         1.223960         1.146426
 H         3.649371        -1.143599         2.214052
 H         5.021666        -1.074905        -0.065321
 H         1.786766        -0.297185        -2.292853
 H         1.474062        -1.730525        -1.077589
