19
Iteration:  3035
 C         0.140954         0.341238        -0.079963
 C         1.579314        -0.055061        -0.236504
 C         2.334577         0.722872        -1.344317
 C         3.711992         0.495165        -0.741099
 C         3.513288         0.694267         0.746163
 O         2.110564         0.581524         0.959025
 C         3.968223        -0.656445         0.252895
 O         3.255430        -1.811914         0.252292
 C         1.848306        -1.635665        -0.192925
 H        -0.361298        -0.519331         0.469321
 H         0.028762         1.294627         0.535920
 H        -0.240669         0.571833        -1.041735
 H         2.232189         0.546182        -2.378296
 H         2.191995         1.905446        -1.463499
 H         4.594691         0.745744        -1.276368
 H         4.029346         1.473761         1.390149
 H         5.008150        -0.770220         0.231852
 H         1.738339        -1.996610        -1.257737
 H         1.181605        -2.084141         0.447091
