19
Iteration:  4907charge 0 multiplicity 1
 C         0.056379         0.325544        -0.225231
 C         1.504731        -0.100462        -0.133225
 C         2.233018        -0.195943        -1.499167
 C         3.681921         0.093001        -1.083550
 C         3.627415         0.872977         0.187217
 O         2.275129         1.011167         0.631431
 C         4.126930        -0.536157         0.219782
 O         3.177088        -1.577162         0.662342
 C         1.811760        -1.283135         0.748599
 H        -0.074300         1.515248        -0.030556
 H        -0.398078         0.159400        -1.154798
 H        -0.441919        -0.275418         0.574654
 H         2.137527        -1.145464        -2.078089
 H         2.153798         0.712150        -2.155970
 H         4.408158         0.295125        -1.808922
 H         4.115991         1.846484         0.390224
 H         5.118873        -0.790049         0.499864
 H         1.192618        -2.190408         0.659945
 H         1.471242        -0.800680         1.713451
