19
Iteration:  1383charge 0 multiplicity 1
 C         0.077343         0.386416        -0.280455
 C         1.601554         0.068527        -0.082302
 C         2.514383         1.228544        -0.537553
 C         3.784294         0.808560         0.036652
 C         3.347735        -0.136679         1.230038
 O         1.898365        -0.258295         1.303378
 C         4.083697        -0.697699         0.010157
 O         3.299122        -1.439949        -0.980525
 C         1.917509        -1.169923        -0.897946
 H         0.071406         1.062001        -1.143166
 H        -0.365808        -0.626805        -0.612786
 H        -0.453650         0.651973         0.670772
 H         2.497933         1.026545        -1.646026
 H         2.127783         2.192226        -0.481815
 H         4.590526         1.511677         0.094869
 H         3.767549        -0.112879         2.194393
 H         5.100410        -1.058159         0.108198
 H         1.563079        -0.951181        -1.905444
 H         1.439623        -2.029395        -0.321317
