19
Iteration:  4506
 C         0.006731         0.331923        -0.191584
 C         1.484221         0.018937        -0.149655
 C         2.235911        -0.130354        -1.415877
 C         3.671209         0.060944        -1.027701
 C         3.610908         0.885471         0.235220
 O         2.193622         1.145429         0.502159
 C         4.150618        -0.613079         0.273030
 O         3.284072        -1.657945         0.631857
 C         1.872218        -1.405672         0.698611
 H        -0.303468         0.775632        -1.179837
 H        -0.579762        -0.525086        -0.165220
 H        -0.237207         1.163572         0.512146
 H         1.977221        -1.077680        -1.850966
 H         2.041358         0.774619        -2.076337
 H         4.479395         0.460346        -1.715214
 H         4.193392         1.713782         0.476647
 H         5.181019        -0.855908         0.638218
 H         1.202011        -2.178334         0.288705
 H         1.448726        -1.443948         1.743552
