19
Iteration:   589
 C         0.129835         0.492659        -0.155203
 C         1.568529         0.073408        -0.205000
 C         2.534816         1.276627        -0.070468
 C         3.753282         0.685048         0.575562
 C         3.204287        -0.634612         1.247676
 O         1.802261        -0.677594         1.160283
 C         4.002785        -0.675725        -0.070561
 O         3.455814        -0.913318        -1.376458
 C         2.070156        -0.928270        -1.295943
 H        -0.527678        -0.352348         0.127882
 H        -0.069306         1.139276         0.728069
 H        -0.403844         0.938642        -1.026016
 H         2.782775         1.734423        -1.049766
 H         2.162217         2.043482         0.519890
 H         4.534085         1.406154         0.944270
 H         3.469278        -0.950535         2.223054
 H         5.015476        -1.167049        -0.070007
 H         1.667303        -0.610781        -2.381430
 H         1.495438        -1.852301        -1.025812
