19
Iteration:  2041charge 0 multiplicity 1
 C         0.107015         0.289360        -0.085820
 C         1.603667         0.102924        -0.157500
 C         2.450643         1.176016        -0.799508
 C         3.743265         0.744220        -0.203731
 C         3.427609         0.256848         1.101020
 O         2.063620        -0.073434         1.152878
 C         4.022640        -0.718084         0.110898
 O         3.137920        -1.733919        -0.416650
 C         1.952657        -1.226542        -0.957610
 H        -0.371073         1.204996        -0.341011
 H        -0.291407        -0.358309        -0.924239
 H        -0.219903        -0.120502         0.958792
 H         2.447860         0.979096        -1.959833
 H         2.140711         2.167544        -0.648400
 H         4.592446         1.373192        -0.384933
 H         3.827851         0.474866         2.082247
 H         5.100187        -1.089849         0.130153
 H         2.264445        -0.923860        -2.023872
 H         1.010028        -1.941692        -0.882279
