19
Iteration:  3852charge 0 multiplicity 1
 C         0.034254         0.208685        -0.188194
 C         1.512209         0.074488        -0.111276
 C         2.168866         0.156197        -1.530113
 C         3.716342         0.169250        -1.021801
 C         3.640672         0.764623         0.373171
 O         2.316345         1.017133         0.743108
 C         4.117663        -0.690853         0.139055
 O         3.198127        -1.617684         0.766151
 C         1.803289        -1.374029         0.386898
 H        -0.332867        -0.680291        -0.812112
 H        -0.390365         0.052001         0.754670
 H        -0.340743         1.160737        -0.582008
 H         1.934124        -0.699027        -2.191191
 H         1.901218         1.142264        -1.930356
 H         4.389877         0.532089        -1.773707
 H         4.406274         1.560196         0.696448
 H         5.093602        -0.891947         0.537668
 H         1.452377        -1.987136        -0.633279
 H         1.164424        -1.893308         1.109425
