19
Iteration:  4807charge 0 multiplicity 1
 C         0.046949         0.329223        -0.144096
 C         1.539199        -0.115435        -0.201285
 C         2.266086        -0.149465        -1.553829
 C         3.627280         0.213476        -1.164064
 C         3.660105         0.819386         0.215427
 O         2.336791         0.937388         0.526336
 C         4.048467        -0.649269         0.154479
 O         3.200815        -1.414763         0.954629
 C         1.793550        -1.333008         0.696865
 H        -0.283221         0.653009         0.888077
 H        -0.061000         0.989343        -1.006426
 H        -0.683721        -0.399008        -0.386739
 H         2.111235        -1.121430        -2.086112
 H         1.706934         0.609553        -2.105697
 H         4.320376         0.359910        -2.023907
 H         4.167568         1.706548         0.666348
 H         5.138065        -0.764410         0.274790
 H         1.336294        -2.204703         0.270434
 H         1.297113        -1.183236         1.661110
