19
Iteration:  2259charge 0 multiplicity 1
 C         0.051592         0.279223        -0.101465
 C         1.600301         0.035734        -0.206914
 C         2.397323         1.164147        -0.909818
 C         3.811022         0.753916        -0.339590
 C         3.418394         0.244582         1.064523
 O         2.038882         0.267647         1.129702
 C         3.998650        -0.745973         0.131931
 O         3.260740        -1.830263        -0.356152
 C         1.930878        -1.400579        -0.762517
 H        -0.141831         1.292823        -0.255854
 H        -0.452819        -0.238528        -0.903444
 H        -0.461246        -0.003044         0.893929
 H         2.348873         1.106628        -2.034946
 H         2.121147         2.062165        -0.424988
 H         4.737888         1.342428        -0.389089
 H         3.980548         0.555925         1.919350
 H         4.955863        -1.078192         0.371612
 H         1.865692        -1.632859        -1.852608
 H         1.173848        -2.027018        -0.341640
