19
Iteration:  2409charge 0 multiplicity 1
 C         0.027052         0.326533        -0.216868
 C         1.552562         0.062837        -0.157460
 C         2.432058         0.979044        -1.034843
 C         3.767187         0.736152        -0.374561
 C         3.498115         0.347497         1.033632
 O         2.062730         0.240309         1.192008
 C         4.070686        -0.728432         0.057756
 O         3.217989        -1.848712        -0.181062
 C         1.884166        -1.365636        -0.628609
 H        -0.548952        -0.321203        -0.814601
 H        -0.259444         0.118052         0.778586
 H        -0.235191         1.391173        -0.499245
 H         2.294773         0.805090        -2.041630
 H         1.966723         2.048268        -0.896016
 H         4.546709         1.403967        -0.736911
 H         4.003406         0.840483         1.831986
 H         5.077812        -1.026295         0.009750
 H         1.965338        -1.277292        -1.666111
 H         1.334829        -2.196163        -0.403071
