19
Iteration:  4590charge 0 multiplicity 1
 C         0.053895         0.261171        -0.150882
 C         1.512102         0.029173        -0.117039
 C         2.262886        -0.100057        -1.415207
 C         3.697867        -0.038733        -1.106483
 C         3.574329         0.847003         0.136263
 O         2.233376         1.196323         0.493346
 C         4.016147        -0.561366         0.276356
 O         3.259093        -1.641792         0.811792
 C         1.852996        -1.355949         0.639203
 H        -0.305866         1.299745         0.248346
 H        -0.256741         0.157120        -1.226551
 H        -0.339635        -0.621662         0.278912
 H         1.890269        -0.874384        -2.072437
 H         2.070615         0.855992        -2.023577
 H         4.538213         0.256676        -1.755616
 H         4.287508         1.622635         0.347443
 H         5.074775        -0.766013         0.451030
 H         1.461710        -2.137513         0.006668
 H         1.481259        -1.252319         1.605759
