19
Iteration:  4771charge 0 multiplicity 1
 C         0.009323         0.325762        -0.192023
 C         1.521392        -0.041224        -0.103971
 C         2.207016        -0.248846        -1.432102
 C         3.643473        -0.014220        -1.044512
 C         3.569502         0.896703         0.173068
 O         2.248071         1.165185         0.543767
 C         4.066949        -0.550590         0.258185
 O         3.305592        -1.662761         0.671639
 C         1.881228        -1.227227         0.696439
 H        -0.633688         0.129538         0.563092
 H        -0.048421         1.441819        -0.317880
 H        -0.286097        -0.240269        -1.072394
 H         1.953550        -1.273766        -1.920167
 H         2.133617         0.562381        -2.159417
 H         4.351445         0.149257        -1.888265
 H         4.289342         1.681573         0.248834
 H         5.082659        -0.665827         0.684281
 H         1.449969        -2.039179         0.318389
 H         1.488459        -1.082579         1.721157
