19
Iteration:  1934
 C         0.057090         0.446826        -0.173103
 C         1.500988        -0.008102        -0.176578
 C         2.539120         0.992790        -0.828184
 C         3.835773         0.814777        -0.005298
 C         3.323161        -0.004504         1.176477
 O         1.928774         0.150329         1.273084
 C         4.014289        -0.723983         0.059602
 O         3.363855        -1.444511        -0.981277
 C         1.918038        -1.493196        -0.648490
 H        -0.589958        -0.344975        -0.480185
 H        -0.133760         0.619134         0.935786
 H        -0.320458         1.363666        -0.774832
 H         2.718010         0.805153        -1.883135
 H         2.136467         2.053075        -0.566931
 H         4.610240         1.539318         0.052132
 H         3.811963         0.033784         2.116217
 H         5.039699        -1.129819         0.328636
 H         1.554061        -1.896591        -1.534121
 H         1.647454        -2.271764         0.140669
