19
Iteration:  2946
 C         0.035119         0.385085        -0.225188
 C         1.495646        -0.021245        -0.177896
 C         2.402359         0.643213        -1.259643
 C         3.813096         0.570007        -0.590286
 C         3.474182         0.534690         0.915744
 O         2.059133         0.644364         0.953666
 C         4.047497        -0.648745         0.117516
 O         3.284356        -1.825733        -0.208800
 C         1.897468        -1.566164         0.107549
 H        -0.006857         1.425928         0.038424
 H        -0.558297         0.224484        -1.213908
 H        -0.641680        -0.111468         0.455943
 H         2.301659         0.103094        -2.226491
 H         2.006798         1.744189        -1.542755
 H         4.608514         1.165479        -1.030808
 H         4.000963         1.028064         1.682293
 H         5.121407        -0.990639         0.194640
 H         1.422403        -2.406194        -0.278027
 H         1.686674        -1.680209         1.219569
