19
Iteration:  4013
 C         0.070836         0.213526        -0.120664
 C         1.592981        -0.066494        -0.203801
 C         2.234194         0.076428        -1.513612
 C         3.708594         0.101448        -1.085837
 C         3.628091         0.867545         0.372721
 O         2.282181         1.063833         0.630008
 C         3.979046        -0.570371         0.230754
 O         3.176017        -1.649635         0.731921
 C         1.826812        -1.392808         0.480501
 H         0.053798         0.946262         0.747667
 H        -0.344790         0.745830        -0.992273
 H        -0.542596        -0.564975         0.185506
 H         1.805488        -0.709847        -2.116027
 H         2.037493         1.092291        -2.010972
 H         4.544402         0.287476        -1.732576
 H         4.394905         1.710476         0.560837
 H         4.994771        -0.821783         0.328677
 H         1.467981        -2.073278        -0.229415
 H         1.196596        -1.608569         1.434322
