19
Iteration:  3355
 C         0.030476         0.217171        -0.203418
 C         1.513438        -0.051923        -0.123613
 C         2.394243         0.277215        -1.413113
 C         3.879648         0.445995        -0.829175
 C         3.560769         0.777223         0.701221
 O         2.182604         0.938095         0.899478
 C         4.006010        -0.604336         0.195276
 O         3.168860        -1.814112         0.070776
 C         1.784548        -1.475162         0.287463
 H        -0.304768         0.491030        -1.268787
 H        -0.586960        -0.606969         0.183750
 H        -0.231896         1.157255         0.449810
 H         2.283455        -0.484133        -2.122019
 H         2.206035         1.339610        -1.840847
 H         4.672420         0.893378        -1.445366
 H         4.147755         1.439624         1.438578
 H         4.885535        -1.073221         0.541781
 H         1.205453        -2.248367        -0.279241
 H         1.493075        -1.550615         1.318472
