19
Iteration:   542charge 0 multiplicity 1
 C        -0.005607         0.374645        -0.282039
 C         1.567394         0.125704        -0.175076
 C         2.602970         1.297282        -0.005172
 C         3.770252         0.586226         0.626759
 C         3.262588        -0.664669         1.211251
 O         1.805553        -0.620375         1.203525
 C         4.058013        -0.665290        -0.114633
 O         3.448820        -0.872094        -1.373087
 C         1.995440        -0.834033        -1.255139
 H        -0.451188         0.335297         0.767156
 H        -0.303987         1.485800        -0.573612
 H        -0.541016        -0.268977        -0.916558
 H         2.909165         1.715925        -0.980607
 H         2.179024         2.112927         0.611735
 H         4.681424         1.095128         0.951352
 H         3.801392        -1.403972         1.900347
 H         5.029106        -1.050318        -0.037081
 H         1.434779        -0.606576        -2.254393
 H         1.596419        -1.823486        -0.978466
