19
Iteration:  1653charge 0 multiplicity 1
 C        -0.024210         0.273842        -0.282407
 C         1.527154         0.111810        -0.197689
 C         2.448747         1.277568        -0.503818
 C         3.781015         0.820497        -0.072482
 C         3.488505         0.008642         1.174636
 O         2.047775        -0.120732         1.200348
 C         4.095705        -0.718802         0.008140
 O         3.131035        -1.729780        -0.534464
 C         1.996791        -1.121693        -1.103929
 H        -0.327926        -0.705873        -0.403858
 H        -0.143283         0.584823         0.832057
 H        -0.478527         1.011989        -1.011414
 H         2.535127         1.527742        -1.544021
 H         2.171641         2.128604         0.179319
 H         4.759156         1.485699        -0.175375
 H         3.991862         0.131483         2.194032
 H         5.079191        -1.120189        -0.020351
 H         1.953995        -0.959837        -2.057890
 H         1.246691        -1.957070        -1.044469
