19
Iteration:  4380
 C         0.008419         0.257698        -0.079313
 C         1.486544        -0.054388        -0.168217
 C         2.406356        -0.120318        -1.610737
 C         3.753796         0.190622        -1.080349
 C         3.605710         0.874623         0.358268
 O         2.254843         0.952445         0.642651
 C         4.077539        -0.579755         0.201398
 O         3.153276        -1.574348         0.607746
 C         1.777058        -1.277226         0.626263
 H        -0.445437        -0.575598         0.272913
 H        -0.157491         1.111220         0.621897
 H        -0.470850         0.351507        -0.986826
 H         1.993038        -1.072984        -2.080459
 H         2.112310         0.675572        -2.272618
 H         4.640334         0.566432        -1.694134
 H         4.154557         1.719397         0.656134
 H         5.080219        -0.927487         0.585919
 H         1.248571        -2.080050         0.203696
 H         1.355544        -0.929673         1.599924
