19
Iteration:   295
 C         0.056198         0.363989        -0.231408
 C         1.584440         0.158974        -0.110690
 C         2.496213         1.351150         0.281220
 C         3.738071         0.610981         0.682855
 C         3.255937        -0.712640         1.168170
 O         1.871502        -0.861695         0.981008
 C         4.009923        -0.677693        -0.145304
 O         3.365567        -1.046814        -1.343577
 C         2.138442        -0.440891        -1.410301
 H        -0.367979         1.363189        -0.161959
 H        -0.416512        -0.035539        -1.154515
 H        -0.409394        -0.236370         0.590916
 H         2.601424         1.927298        -0.696848
 H         2.203228         2.029613         1.150801
 H         4.504888         1.171646         1.146908
 H         3.730192        -1.125999         2.013265
 H         5.028061        -1.045521        -0.098657
 H         1.986280         0.246820        -2.237824
 H         1.413877        -1.271057        -1.722454
