19
Iteration:  1272charge 0 multiplicity 1
 C         0.134056         0.306491        -0.228241
 C         1.602664         0.086398        -0.187867
 C         2.414205         1.446728        -0.372229
 C         3.795241         0.820953         0.065485
 C         3.397702        -0.119258         1.196291
 O         1.952990        -0.315205         1.194947
 C         4.012704        -0.774870        -0.023813
 O         3.231104        -1.609093        -0.773588
 C         1.978018        -1.048807        -1.127559
 H        -0.344063        -0.623575        -0.146528
 H        -0.280368         1.079725         0.457601
 H        -0.297507         0.622274        -1.177319
 H         2.157109         1.708797        -1.402045
 H         2.089508         2.089001         0.346910
 H         4.747950         1.377020         0.102049
 H         3.889780        -0.129228         2.203432
 H         5.089752        -1.111367         0.019311
 H         2.154876        -0.601120        -2.082659
 H         1.248204        -1.896658        -1.061535
