19
Iteration:   338
 C         0.069509         0.395662        -0.093755
 C         1.540113         0.134323        -0.110026
 C         2.585621         1.301859         0.076063
 C         3.709403         0.555796         0.688223
 C         3.172277        -0.694600         1.143082
 O         1.760651        -0.808571         1.026008
 C         3.995890        -0.690882        -0.128754
 O         3.564359        -0.783527        -1.408880
 C         2.089828        -0.676884        -1.348620
 H        -0.344433         0.351059         0.936246
 H        -0.080382         1.474587        -0.391733
 H        -0.617252        -0.244646        -0.697295
 H         2.966288         1.765527        -0.924852
 H         2.077194         2.088585         0.749559
 H         4.453168         1.064643         1.214897
 H         3.533858        -1.277737         1.946208
 H         4.910416        -1.230520        -0.043853
 H         1.820606        -0.426715        -2.349173
 H         1.547911        -1.647660        -1.188841
