19
Iteration:  4812
 C         0.031292         0.307268        -0.172206
 C         1.525671        -0.068123        -0.197747
 C         2.244556        -0.146311        -1.597785
 C         3.636432         0.178279        -1.148181
 C         3.629718         0.798676         0.226074
 O         2.340587         0.948842         0.545462
 C         4.078923        -0.639993         0.171542
 O         3.200138        -1.403575         0.980655
 C         1.843601        -1.328686         0.666882
 H        -0.147321         0.791696         0.855842
 H        -0.148112         1.061118        -0.973231
 H        -0.849179        -0.498544        -0.163741
 H         2.172700        -1.093444        -2.109184
 H         1.675253         0.684781        -2.084715
 H         4.300623         0.378127        -1.962681
 H         4.178541         1.690813         0.549546
 H         5.114041        -0.983181         0.156437
 H         1.252033        -2.329710         0.164282
 H         1.349562        -1.251080         1.657022
