19
Iteration:  2622charge 0 multiplicity 1
 C         0.069892         0.283518        -0.163518
 C         1.515744         0.077055        -0.169206
 C         2.383382         0.968295        -1.110006
 C         3.791063         0.615570        -0.601986
 C         3.486017         0.448341         0.907704
 O         2.106686         0.319908         1.118401
 C         4.023488        -0.694793         0.119762
 O         3.206247        -1.802692         0.002138
 C         1.939634        -1.455072        -0.482261
 H        -0.570608        -0.474569        -0.706342
 H        -0.379852         0.445225         0.853385
 H        -0.212501         1.218550        -0.646609
 H         2.195820         0.774551        -2.270038
 H         2.132955         1.979514        -0.981054
 H         4.612296         1.204827        -1.062913
 H         4.034990         0.798146         1.793657
 H         5.027324        -0.946188         0.300208
 H         1.847910        -1.785912        -1.520193
 H         1.215724        -2.050775         0.190769
