19
Iteration:  3819charge 0 multiplicity 1
 C         0.088508         0.432536        -0.121098
 C         1.509638        -0.132528        -0.192647
 C         2.228633         0.146901        -1.509565
 C         3.725054         0.231788        -1.039635
 C         3.583849         0.860093         0.371041
 O         2.237870         0.801280         0.682526
 C         4.101101        -0.552448         0.192917
 O         3.224030        -1.629071         0.726776
 C         1.773081        -1.481274         0.398275
 H        -0.703777        -0.341708         0.193178
 H         0.230206         1.061885         0.714718
 H        -0.303912         0.918453        -0.999313
 H         2.086701        -0.582700        -2.377661
 H         1.981744         1.137231        -1.981754
 H         4.520967         0.372782        -1.779101
 H         4.178048         1.672178         0.869943
 H         5.099009        -0.777921         0.602797
 H         1.493294        -2.272926        -0.474005
 H         1.332699        -1.628635         1.379161
