19
Iteration:  2840
 C         0.035065         0.347047        -0.194183
 C         1.533277        -0.033477        -0.193753
 C         2.374074         0.810493        -1.203225
 C         3.789754         0.685519        -0.687403
 C         3.557622         0.571793         0.853327
 O         2.153203         0.438551         1.060109
 C         4.041959        -0.662681         0.155366
 O         3.176975        -1.781443         0.136075
 C         1.824088        -1.615331        -0.317692
 H        -0.642561        -0.542472        -0.471564
 H        -0.266017         0.542226         0.876235
 H        -0.150961         1.142295        -0.854893
 H         2.286504         0.495996        -2.204058
 H         2.121844         1.887642        -1.124657
 H         4.628231         1.179793        -1.152877
 H         4.234665         1.022785         1.519462
 H         5.135492        -0.924481         0.191385
 H         1.724543        -2.110731        -1.331538
 H         1.194632        -2.087330         0.351858
