19
Iteration:  3728charge 0 multiplicity 1
 C         0.039916         0.248290        -0.239321
 C         1.520781        -0.029350        -0.199850
 C         2.332471         0.168346        -1.559488
 C         3.717303         0.271879        -0.953943
 C         3.563558         0.707863         0.649722
 O         2.175342         1.044236         0.724825
 C         3.981084        -0.651270         0.171510
 O         3.193041        -1.805573         0.283745
 C         1.960213        -1.299272         0.643725
 H        -0.237364         0.928691         0.519625
 H        -0.354337         0.693498        -1.213051
 H        -0.463587        -0.627846         0.035174
 H         2.191939        -0.573778        -2.263131
 H         1.938510         1.162759        -1.912294
 H         4.591425         0.620525        -1.523304
 H         4.217870         1.371516         1.265294
 H         5.035071        -0.909835         0.340440
 H         1.122108        -2.203773         0.740037
 H         2.101066        -0.902390         1.598003
