19
Iteration:  3547
 C         0.095475         0.464911        -0.247436
 C         1.565734        -0.075174        -0.144022
 C         2.324051         0.192955        -1.447525
 C         3.738894         0.339504        -0.917220
 C         3.470252         0.792816         0.556897
 O         2.095596         0.881830         0.825839
 C         4.015916        -0.582306         0.188534
 O         3.295088        -1.837652         0.160409
 C         1.871747        -1.470992         0.583861
 H        -0.629791        -0.390585        -0.473074
 H        -0.195752         0.958391         0.732260
 H         0.010522         1.193741        -1.053157
 H         2.302254        -0.715372        -2.173704
 H         2.101458         1.083868        -1.905183
 H         4.571137         0.584712        -1.603274
 H         4.043776         1.400059         1.333542
 H         5.035553        -0.687400         0.520988
 H         1.243324        -2.398356         0.201154
 H         1.702524        -1.304732         1.637829
