19
Iteration:  2973
 C         0.101692         0.242812        -0.257747
 C         1.552609        -0.008112        -0.071469
 C         2.418025         0.588975        -1.286256
 C         3.791245         0.590231        -0.706242
 C         3.520751         0.630283         0.770507
 O         2.146611         0.604812         1.136817
 C         4.002359        -0.625290         0.130924
 O         3.208608        -1.799547        -0.026747
 C         1.788059        -1.452605        -0.074504
 H        -0.343944         0.933965         0.517356
 H        -0.053669         0.759511        -1.168633
 H        -0.553972        -0.681060        -0.206129
 H         2.304977        -0.022588        -2.228136
 H         2.028825         1.619963        -1.428371
 H         4.505426         1.182233        -1.316889
 H         4.210930         1.045193         1.571785
 H         4.976787        -0.964299         0.400531
 H         1.345010        -2.051212        -0.985162
 H         1.223313        -1.934427         0.904369
