19
Iteration:  4831
 C         0.059248         0.353129        -0.117052
 C         1.523418        -0.021837        -0.195738
 C         2.228204        -0.068164        -1.541182
 C         3.670355        -0.044268        -1.123071
 C         3.657125         0.867583         0.121521
 O         2.223562         0.998025         0.602333
 C         4.059785        -0.631693         0.206070
 O         3.257258        -1.446223         0.961421
 C         1.838196        -1.348357         0.568096
 H        -0.331643         0.992427         0.779912
 H        -0.290593         0.501900        -1.083273
 H        -0.499519        -0.605662         0.072358
 H         1.825701        -0.953469        -1.967177
 H         2.012207         0.777021        -2.230946
 H         4.453169         0.079671        -1.817215
 H         4.234814         1.805664         0.381835
 H         5.094420        -0.677749         0.409010
 H         1.636094        -2.192301        -0.101755
 H         1.164610        -1.443604         1.406102
