19
Iteration:  2372
 C         0.029329         0.234811        -0.223191
 C         1.567157         0.033522        -0.193196
 C         2.531422         0.945090        -0.968206
 C         3.835142         0.733037        -0.362243
 C         3.475365         0.300747         1.069146
 O         2.001568         0.293430         1.173994
 C         4.079113        -0.701793         0.119509
 O         3.208137        -1.692255        -0.508679
 C         1.818598        -1.412142        -0.410471
 H        -0.548578        -0.755582        -0.068700
 H        -0.182876         1.030782         0.556828
 H        -0.304061         0.643997        -1.145104
 H         2.557454         0.622271        -2.119031
 H         2.138206         1.980936        -0.792704
 H         4.733029         1.335263        -0.500158
 H         3.919783         0.775349         1.976499
 H         5.171279        -1.001386         0.158000
 H         1.389623        -1.519377        -1.493036
 H         1.156523        -1.975092         0.278427
