19
Iteration:  3822charge 0 multiplicity 1
 C         0.094527         0.412739        -0.109300
 C         1.522452        -0.099068        -0.212290
 C         2.227147         0.151148        -1.494817
 C         3.740565         0.219790        -1.032578
 C         3.597806         0.877239         0.349080
 O         2.221255         0.802329         0.702459
 C         4.067278        -0.561898         0.186124
 O         3.231222        -1.632140         0.740500
 C         1.789981        -1.475098         0.369951
 H        -0.671244        -0.369303         0.087905
 H         0.114642         1.024578         0.785847
 H        -0.274449         0.935946        -1.071390
 H         2.096050        -0.651266        -2.401362
 H         1.933834         1.156734        -1.885631
 H         4.452357         0.234962        -1.854446
 H         4.217873         1.664273         0.912787
 H         5.036951        -0.801901         0.512607
 H         1.531851        -2.196128        -0.332875
 H         1.270488        -1.642918         1.374057
