19
Iteration:   989charge 0 multiplicity 1
 C         0.048888         0.468769        -0.132673
 C         1.572604         0.055313        -0.131097
 C         2.535676         1.254804        -0.393219
 C         3.766100         0.773514         0.392208
 C         3.316718        -0.377552         1.278676
 O         1.847754        -0.507029         1.151367
 C         4.036609        -0.673168        -0.041788
 O         3.391581        -1.242699        -1.153946
 C         2.000962        -1.020672        -1.146968
 H        -0.099433         0.893016         0.875658
 H        -0.079334         1.432793        -0.866506
 H        -0.626954        -0.403433        -0.365725
 H         2.552630         1.367642        -1.483310
 H         2.040444         2.172857         0.032636
 H         4.631729         1.413480         0.490118
 H         3.642396        -0.566921         2.344910
 H         5.057271        -1.007429        -0.033735
 H         1.602722        -0.791760        -2.152899
 H         1.536500        -1.946704        -0.847283
