19
Iteration:  3879
 C         0.022492         0.197303        -0.183785
 C         1.559424         0.003800        -0.132020
 C         2.310878         0.221030        -1.528106
 C         3.740260         0.148717        -1.024761
 C         3.626451         0.835773         0.366453
 O         2.289680         0.992235         0.690350
 C         3.987124        -0.628851         0.162830
 O         3.176376        -1.651821         0.665502
 C         1.796648        -1.417737         0.515112
 H        -0.369788         0.055274        -1.161346
 H        -0.516646        -0.533487         0.546384
 H        -0.231304         1.176392         0.290925
 H         2.109399        -0.739772        -2.176002
 H         1.995445         1.171286        -2.031600
 H         4.585509         0.408342        -1.700586
 H         4.270597         1.622095         0.552468
 H         5.081264        -0.930193         0.285304
 H         1.206348        -2.100050        -0.063842
 H         1.320033        -1.512983         1.543866
