19
Iteration:  1759charge 0 multiplicity 1
 C         0.003717         0.408518        -0.335808
 C         1.508729         0.063554        -0.074760
 C         2.469617         1.159905        -0.637421
 C         3.836954         0.787193        -0.035242
 C         3.348908        -0.131426         1.203085
 O         1.968042         0.060717         1.274145
 C         4.084579        -0.730033         0.006635
 O         3.378311        -1.514352        -0.965483
 C         1.871206        -1.421818        -0.666830
 H         0.016666         1.309524        -0.924982
 H        -0.541874        -0.358463        -0.901209
 H        -0.509065         0.605682         0.651776
 H         2.538662         1.320650        -1.714400
 H         2.045431         2.193686        -0.266362
 H         4.733129         1.476380         0.084970
 H         3.788170        -0.058928         2.237734
 H         5.110998        -0.987321         0.049261
 H         1.581854        -1.310862        -1.792527
 H         1.628514        -2.214416        -0.015752
