19
Iteration:  1710charge 0 multiplicity 1
 C        -0.007979         0.431961        -0.186391
 C         1.504611        -0.007801        -0.162780
 C         2.587689         1.015596        -0.789873
 C         3.824334         0.830823         0.073637
 C         3.387691        -0.085433         1.276754
 O         1.962539        -0.076862         1.206904
 C         4.070153        -0.647722         0.065547
 O         3.296591        -1.370301        -0.915358
 C         1.858712        -1.343023        -0.800755
 H        -0.417651         0.373924        -1.236243
 H        -0.664751        -0.181769         0.471990
 H        -0.038509         1.474840         0.132204
 H         2.843118         0.904676        -1.905186
 H         2.276320         2.020431        -0.703580
 H         4.659567         1.492524         0.047981
 H         3.732912        -0.222216         2.264260
 H         5.071074        -1.154583         0.199878
 H         1.495989        -1.391149        -1.732942
 H         1.609455        -2.140660        -0.054552
