19
Iteration:  4887charge 0 multiplicity 1
 C         0.046160         0.286528        -0.097932
 C         1.546234        -0.034851        -0.170158
 C         2.299388        -0.095696        -1.597386
 C         3.715380         0.079150        -1.170341
 C         3.616138         0.785642         0.216128
 O         2.210698         0.996170         0.535386
 C         4.005182        -0.578566         0.201311
 O         3.235046        -1.563147         0.866756
 C         1.832776        -1.217002         0.686896
 H        -0.054680         1.392813         0.212964
 H        -0.448575         0.363523        -1.027766
 H        -0.423775        -0.505663         0.591903
 H         2.019880        -1.082302        -1.832388
 H         1.879397         0.662041        -2.304952
 H         4.539603         0.340838        -1.794319
 H         4.191793         1.568730         0.658719
 H         5.066811        -0.799016         0.269788
 H         1.441771        -2.031099         0.189705
 H         1.346801        -1.156303         1.664621
