19
Iteration:   264charge 0 multiplicity 1
 C         0.060363         0.434219        -0.142792
 C         1.553303         0.115049        -0.124445
 C         2.393086         1.265335         0.360620
 C         3.682420         0.581208         0.580881
 C         3.287457        -0.728600         1.117005
 O         1.887627        -0.836187         0.910563
 C         4.026082        -0.654987        -0.117900
 O         3.399603        -1.083980        -1.259468
 C         2.209588        -0.402422        -1.491598
 H        -0.152892         0.893381        -1.068013
 H        -0.561681        -0.467272        -0.017363
 H        -0.249948         1.267433         0.652182
 H         2.302142         2.063167        -0.307977
 H         2.032507         1.638010         1.335355
 H         4.425792         1.251918         0.903369
 H         3.657350        -1.242727         1.978611
 H         5.028658        -1.004014        -0.125058
 H         2.323986         0.490438        -2.200857
 H         1.469431        -1.156095        -1.908682
