19
Iteration:  2475
 C         0.009004         0.331906        -0.228363
 C         1.506121         0.049008        -0.171554
 C         2.458400         0.789542        -1.056799
 C         3.816444         0.762192        -0.430285
 C         3.536544         0.279988         1.049488
 O         2.067387         0.346686         1.235319
 C         4.044541        -0.654350         0.061906
 O         3.252336        -1.702740        -0.268624
 C         1.819316        -1.437022        -0.512009
 H        -0.366059         1.236752        -0.580161
 H        -0.452377        -0.406122        -0.842172
 H        -0.378578         0.141346         0.810135
 H         2.493552         0.376949        -2.011032
 H         2.199134         1.930320        -1.256443
 H         4.620055         1.446581        -0.737101
 H         3.987120         0.725069         1.971189
 H         5.075298        -1.119137         0.152499
 H         1.576299        -1.578385        -1.677165
 H         1.266444        -2.152041         0.038188
