19
Iteration:  4409charge 0 multiplicity 1
 C         0.061460         0.385196        -0.172408
 C         1.512373        -0.069497        -0.124353
 C         2.248465        -0.026456        -1.479852
 C         3.664396         0.167159        -1.062923
 C         3.589071         0.889438         0.259245
 O         2.225362         0.965376         0.572114
 C         4.049343        -0.615909         0.200414
 O         3.254922        -1.612025         0.818918
 C         1.900889        -1.425816         0.540698
 H        -0.694105        -0.483260        -0.042822
 H        -0.071227         1.114359         0.674343
 H        -0.193069         0.873194        -1.250985
 H         1.936697        -0.902085        -2.049747
 H         1.946850         0.857572        -2.062396
 H         4.447558         0.374733        -1.842610
 H         4.181457         1.735299         0.633778
 H         5.100849        -0.830073         0.394622
 H         1.487024        -2.232869        -0.172759
 H         1.288871        -1.428974         1.423310
