19
Iteration:  1550
 C         0.102142         0.352345        -0.296802
 C         1.579932         0.043584        -0.091470
 C         2.607471         1.103382        -0.677563
 C         3.749287         0.781540         0.137746
 C         3.333581        -0.110484         1.243803
 O         1.905090        -0.099621         1.287453
 C         4.024953        -0.762691         0.032636
 O         3.271436        -1.247112        -1.108203
 C         1.927166        -1.319131        -0.701380
 H        -0.557748         0.469680         0.718814
 H         0.027977         1.344136        -0.748560
 H        -0.338190        -0.287493        -1.082085
 H         2.731899         0.778850        -1.768329
 H         2.321012         2.211118        -0.744088
 H         4.460724         1.548027         0.226017
 H         3.837505        -0.187211         2.191033
 H         4.949980        -1.418106        -0.013648
 H         1.456537        -1.484916        -1.621239
 H         1.805519        -2.130851         0.072781
