19
Iteration:  4994
 C         0.032674         0.242830        -0.101100
 C         1.518292        -0.035255        -0.116131
 C         2.329586        -0.074195        -1.530125
 C         3.746250         0.073516        -1.068275
 C         3.597759         0.840856         0.245827
 O         2.206799         1.084014         0.515652
 C         4.077558        -0.648475         0.202838
 O         3.223562        -1.615602         0.718050
 C         1.772690        -1.252615         0.639450
 H        -0.504540         0.669824        -1.020679
 H        -0.458719        -0.499727         0.376940
 H        -0.072249         1.096356         0.566337
 H         2.053439        -0.946947        -2.188123
 H         1.995275         0.855029        -2.103539
 H         4.593547         0.413542        -1.653152
 H         4.127799         1.758764         0.463587
 H         5.110509        -0.828127         0.551292
 H         1.313979        -2.207705         0.151313
 H         1.482691        -1.183294         1.727527
