19
Iteration:   619charge 0 multiplicity 1
 C         0.038769         0.446009        -0.183282
 C         1.555496         0.098010        -0.135283
 C         2.450239         1.350753         0.032395
 C         3.758066         0.773043         0.469393
 C         3.282559        -0.598897         1.159358
 O         1.888635        -0.711922         1.007879
 C         4.086542        -0.645717        -0.081332
 O         3.418975        -1.235182        -1.159032
 C         2.022133        -0.741630        -1.286286
 H        -0.492228        -0.200716        -0.906284
 H        -0.297682         0.431553         0.946524
 H        -0.186509         1.417182        -0.521938
 H         2.567920         1.913580        -0.938778
 H         2.104332         2.036157         0.824336
 H         4.597399         1.436159         0.795307
 H         3.538295        -1.017727         2.161340
 H         5.081784        -1.039048        -0.044213
 H         1.960819        -0.198202        -2.261944
 H         1.298089        -1.472327        -1.487402
