19
Iteration:  1732charge 0 multiplicity 1
 C         0.172017         0.455523        -0.263953
 C         1.555147         0.051999        -0.113711
 C         2.534742         1.039181        -0.732480
 C         3.803833         0.816012         0.042039
 C         3.286412         0.001932         1.211969
 O         1.896675        -0.105764         1.303044
 C         3.998033        -0.733439        -0.014880
 O         3.310576        -1.353944        -1.018724
 C         1.895022        -1.419139        -0.675606
 H         0.044570         1.064196        -1.224207
 H        -0.477175        -0.439686        -0.232761
 H         0.028512         1.089237         0.598460
 H         2.775041         0.906672        -1.859972
 H         2.162175         2.011490        -0.727836
 H         4.515395         1.554344         0.254899
 H         3.788681         0.060552         2.134024
 H         4.994260        -1.260081         0.150806
 H         1.466615        -1.731745        -1.512609
 H         1.854674        -2.090354         0.288949
