19
Iteration:   152charge 0 multiplicity 1
 C         0.101509         0.525981        -0.237982
 C         1.569525         0.147562        -0.078791
 C         2.547635         1.218823         0.286185
 C         3.700127         0.489801         0.909121
 C         3.197082        -0.953522         1.016363
 O         1.789968        -0.962854         0.960915
 C         4.053605        -0.594184        -0.190459
 O         3.449969        -0.555805        -1.449410
 C         2.056732        -0.592369        -1.318363
 H        -0.314992         1.577564         0.147270
 H        -0.025532         0.525853        -1.363937
 H        -0.540766        -0.305029         0.114320
 H         2.848177         1.796098        -0.650227
 H         2.135755         1.937640         1.024575
 H         4.398451         0.811462         1.720739
 H         3.733176        -1.493671         1.834332
 H         5.122592        -0.950534        -0.281697
 H         1.658444        -0.433804        -2.370127
 H         1.844911        -1.722954        -1.152392
