19
Iteration:  3993charge 0 multiplicity 1
 C         0.031720         0.221762        -0.133255
 C         1.527459         0.051898        -0.158413
 C         2.283098         0.200960        -1.570434
 C         3.717889         0.151185        -1.027444
 C         3.585444         0.727458         0.292602
 O         2.194563         1.008819         0.579064
 C         4.067005        -0.691251         0.200998
 O         3.269498        -1.702190         0.720577
 C         1.823221        -1.310196         0.596113
 H        -0.405587         1.149991         0.405343
 H        -0.326652         0.378193        -1.128547
 H        -0.475211        -0.736430         0.212861
 H         2.018832        -0.512424        -2.264810
 H         2.049673         1.234691        -1.910945
 H         4.459079         0.298109        -1.818033
 H         4.257874         1.495478         0.796549
 H         5.090095        -0.720854         0.445802
 H         1.311558        -2.183567         0.321378
 H         1.591548        -1.152038         1.626962
