19
Iteration:  1345charge 0 multiplicity 1
 C         0.083230         0.464225        -0.112145
 C         1.518572         0.000135        -0.195491
 C         2.567559         1.129580        -0.642872
 C         3.846759         0.808717         0.255356
 C         3.259975        -0.191711         1.249956
 O         1.841283        -0.119800         1.191436
 C         4.039758        -0.728722         0.024959
 O         3.346169        -1.230631        -1.129523
 C         1.991732        -1.429924        -0.887544
 H        -0.622703         0.456102        -0.995965
 H        -0.464133        -0.184166         0.659330
 H        -0.072490         1.527043         0.282423
 H         3.014371         1.055199        -1.699569
 H         2.083658         2.150947        -0.257460
 H         4.727962         1.532015         0.274811
 H         3.633529        -0.244418         2.307196
 H         5.076764        -1.131565         0.094685
 H         1.528054        -1.603841        -1.947022
 H         1.818719        -2.223461        -0.164370
