19
Iteration:  1763charge 0 multiplicity 1
 C         0.012945         0.387999        -0.319118
 C         1.509793         0.064424        -0.079156
 C         2.475937         1.182901        -0.627453
 C         3.844730         0.786024        -0.041778
 C         3.395833        -0.118354         1.178933
 O         1.961175         0.061952         1.261360
 C         4.075250        -0.734035        -0.016885
 O         3.375487        -1.509022        -0.899876
 C         1.855416        -1.395431        -0.717550
 H        -0.145270         1.314204        -0.878880
 H        -0.543617        -0.388915        -0.920619
 H        -0.602840         0.502483         0.569051
 H         2.537132         1.267983        -1.689821
 H         2.166355         2.099048        -0.161154
 H         4.640309         1.464305         0.170932
 H         3.698272        -0.037829         2.171903
 H         5.139430        -1.155726         0.087584
 H         1.556712        -1.382342        -1.736906
 H         1.549392        -2.259927        -0.056968
