19
Iteration:   513charge 0 multiplicity 1
 C         0.172155         0.389362        -0.182141
 C         1.616770         0.101618        -0.144983
 C         2.432324         1.366739         0.166897
 C         3.707481         0.676793         0.476928
 C         3.255093        -0.558702         1.161063
 O         1.838114        -0.732815         1.032226
 C         4.066760        -0.732813        -0.066635
 O         3.411327        -1.099029        -1.276038
 C         2.008172        -0.695979        -1.355341
 H        -0.083030         1.100905         0.586869
 H        -0.081072         0.980991        -1.072611
 H        -0.527325        -0.441362        -0.290788
 H         2.457743         2.021624        -0.738771
 H         2.040485         1.941840         0.974741
 H         4.524322         1.235517         1.009271
 H         3.700347        -0.976900         2.078860
 H         5.051157        -1.182372         0.024344
 H         1.878568        -0.003755        -2.208632
 H         1.360409        -1.596081        -1.288662
