19
Iteration:  1749
 C         0.061365         0.462511        -0.328768
 C         1.547579         0.009585        -0.132151
 C         2.486367         1.121233        -0.682468
 C         3.787158         0.766511         0.028383
 C         3.336809        -0.074250         1.239022
 O         1.928038         0.008712         1.334998
 C         4.019654        -0.690840         0.004170
 O         3.350081        -1.508550        -1.050896
 C         1.995045        -1.354045        -0.647891
 H         0.070657         1.281096        -0.992259
 H        -0.556982        -0.360035        -0.750144
 H        -0.341837         0.820025         0.660967
 H         2.474698         1.014989        -1.732828
 H         2.059252         2.145899        -0.340054
 H         4.649222         1.481135        -0.176212
 H         3.913058        -0.176031         2.185504
 H         5.046377        -0.933360         0.188986
 H         1.220107        -1.725478        -1.508064
 H         1.627093        -2.087834         0.016552
