19
Iteration:  2996
 C        -0.018894         0.262672        -0.203752
 C         1.514433         0.076801        -0.143128
 C         2.375564         0.622406        -1.346346
 C         3.738597         0.581923        -0.686444
 C         3.603254         0.561887         0.830971
 O         2.194586         0.566123         1.060532
 C         4.102976        -0.676566         0.131740
 O         3.188898        -1.745796         0.185118
 C         1.817993        -1.422098        -0.192539
 H        -0.450467         0.292553         0.812578
 H        -0.454290         1.088819        -0.722400
 H        -0.449426        -0.739767        -0.612836
 H         2.374149        -0.137625        -2.202224
 H         1.932733         1.544389        -1.701187
 H         4.621026         1.079886        -1.213106
 H         4.128354         1.266923         1.515960
 H         5.117722        -1.119943         0.131201
 H         1.648236        -1.925441        -1.246148
 H         1.213366        -2.186967         0.513696
