19
Iteration:  2928
 C         0.028698         0.379534        -0.202648
 C         1.541113        -0.003493        -0.180881
 C         2.464996         0.530659        -1.342039
 C         3.794438         0.672625        -0.581553
 C         3.417863         0.469499         0.849031
 O         2.014661         0.638945         1.093127
 C         4.028402        -0.679741         0.130514
 O         3.277512        -1.815046        -0.285012
 C         1.940414        -1.470160         0.114105
 H        -0.172022         1.426633        -0.606397
 H        -0.528382        -0.299664        -0.871156
 H        -0.252369         0.325349         0.829726
 H         2.536825        -0.146439        -2.143442
 H         2.179458         1.567757        -1.625090
 H         4.548990         1.273087        -1.045208
 H         3.954265         0.922831         1.702122
 H         4.993629        -0.970444         0.452690
 H         1.203077        -2.065452        -0.474216
 H         1.690197        -1.639339         1.282572
