19
Iteration:  1537
 C         0.040430         0.423143        -0.370644
 C         1.487221        -0.017644        -0.087164
 C         2.520959         1.009067        -0.641681
 C         3.928202         0.800855         0.158227
 C         3.354503        -0.137701         1.247203
 O         1.955946        -0.040151         1.349905
 C         4.016599        -0.681925        -0.015694
 O         3.299422        -1.249231        -1.111861
 C         1.897054        -1.373969        -0.753689
 H        -0.696558         0.471193         0.500156
 H         0.113681         1.395823        -0.900011
 H        -0.423711        -0.323538        -1.022925
 H         2.773666         0.942209        -1.788309
 H         2.094821         1.978224        -0.325906
 H         4.744391         1.561423         0.197605
 H         3.816283        -0.374455         2.242373
 H         4.952637        -1.102892         0.302257
 H         1.302779        -1.642364        -1.540852
 H         1.713836        -2.177690        -0.051268
