19
Iteration:  2720
 C         0.061906         0.299002        -0.254869
 C         1.530865        -0.022693        -0.091556
 C         2.466359         0.596115        -1.156379
 C         3.836511         0.728483        -0.477874
 C         3.478332         0.430152         0.977660
 O         2.038824         0.575167         1.139177
 C         4.077391        -0.630096         0.047099
 O         3.204235        -1.704541        -0.404353
 C         1.831580        -1.524714        -0.100840
 H        -0.102292         1.389695        -0.180905
 H        -0.396419         0.027641        -1.232819
 H        -0.534375        -0.217540         0.417791
 H         2.456269        -0.174135        -2.020257
 H         2.122002         1.564187        -1.488942
 H         4.696795         1.399228        -0.699331
 H         4.077179         0.822597         1.826204
 H         5.086929        -0.931239         0.386775
 H         1.216556        -1.925333        -0.996767
 H         1.512020        -2.032324         0.785834
