19
Iteration:  2672charge 0 multiplicity 1
 C         0.005093         0.345506        -0.171748
 C         1.489504         0.046198        -0.157204
 C         2.459763         0.825291        -1.229319
 C         3.818709         0.686189        -0.591801
 C         3.485100         0.368871         0.990532
 O         2.069871         0.411614         1.098186
 C         4.072333        -0.668944         0.104231
 O         3.317677        -1.806342        -0.100995
 C         1.814086        -1.459332        -0.319202
 H        -0.392481         0.776203        -1.072789
 H        -0.577631        -0.589344        -0.040654
 H        -0.393410         0.955312         0.699753
 H         2.268502         0.434343        -2.156521
 H         1.993851         1.904613        -1.207546
 H         4.667097         1.276688        -0.891292
 H         3.893791         0.888791         1.834090
 H         5.134105        -0.863851         0.204680
 H         1.605569        -1.786300        -1.319575
 H         1.290429        -2.049506         0.369158
