19
Iteration:    83
 C        -0.080272         0.343711        -0.093339
 C         1.558582         0.176357        -0.119509
 C         2.540841         1.334192         0.413270
 C         3.729873         0.534866         0.830843
 C         3.222244        -0.956220         1.074197
 O         1.854543        -0.967647         0.784676
 C         4.009687        -0.615407        -0.108866
 O         3.451919        -0.904629        -1.362134
 C         2.180500        -0.237797        -1.521407
 H        -0.556387        -0.069340        -1.126740
 H        -0.379581        -0.217101         0.792220
 H        -0.393774         1.393895        -0.076436
 H         2.777988         2.107645        -0.411165
 H         2.093321         1.781304         1.342165
 H         4.592662         0.862977         1.366306
 H         3.551010        -1.553385         1.891598
 H         5.049003        -0.807792        -0.049350
 H         2.367906         0.684795        -2.138805
 H         1.473779        -0.850275        -2.216706
