19
Iteration:  3746
 C        -0.001817         0.164784        -0.238434
 C         1.540958         0.021128        -0.096714
 C         2.382939         0.205890        -1.382328
 C         3.843779         0.289261        -0.980581
 C         3.551385         0.770835         0.481268
 O         2.193929         1.032606         0.704555
 C         4.051018        -0.659148         0.140592
 O         3.143434        -1.822626         0.256922
 C         1.811045        -1.313868         0.689467
 H        -0.429401         0.699692         0.625632
 H        -0.113605         0.848880        -1.057939
 H        -0.595472        -0.808427        -0.448333
 H         2.167302        -0.620273        -2.129357
 H         2.018487         1.096392        -1.851786
 H         4.573012         0.631518        -1.702596
 H         4.236544         1.503007         1.038621
 H         5.053732        -0.847379         0.465081
 H         1.194685        -2.117907         0.372599
 H         1.767423        -1.114375         1.819895
