19
Iteration:  4174
 C         0.059656         0.420530        -0.188049
 C         1.530250         0.023048        -0.135504
 C         2.219247        -0.039127        -1.542222
 C         3.692587         0.138754        -1.035079
 C         3.521080         0.789316         0.346227
 O         2.185009         0.996740         0.662950
 C         4.074474        -0.582251         0.250711
 O         3.306529        -1.690298         0.593433
 C         1.911216        -1.406950         0.587049
 H        -0.366584         0.695122         0.850924
 H         0.059194         1.405229        -0.851357
 H        -0.583321        -0.362705        -0.624851
 H         1.950144        -1.049944        -1.935827
 H         1.909238         0.755200        -2.246301
 H         4.277902         0.591382        -1.824746
 H         4.164442         1.632607         0.723972
 H         5.063322        -0.859083         0.484439
 H         1.218281        -2.219263         0.218319
 H         1.768028        -1.233188         1.590037
