19
Iteration:  4861charge 0 multiplicity 1
 C         0.027618         0.249688        -0.065557
 C         1.506329        -0.081247        -0.157444
 C         2.198118        -0.058567        -1.501974
 C         3.682162        -0.008394        -1.055250
 C         3.703776         0.889386         0.139165
 O         2.277930         1.215848         0.451724
 C         4.050062        -0.632424         0.297579
 O         3.224414        -1.540435         0.891316
 C         1.827634        -1.413421         0.558074
 H        -0.146710         1.295272         0.367276
 H        -0.374938         0.434117        -1.118603
 H        -0.502649        -0.521038         0.377677
 H         1.799864        -1.030649        -1.992979
 H         1.799245         0.868364        -1.948654
 H         4.478299         0.212618        -1.817831
 H         4.446096         1.749100         0.278205
 H         5.110666        -0.832039         0.483767
 H         1.633038        -2.206169        -0.244220
 H         1.198877        -1.724879         1.441136
