19
Iteration:  3306
 C         0.075415         0.382266        -0.273312
 C         1.553202        -0.082936        -0.129952
 C         2.340929         0.364151        -1.368904
 C         3.732629         0.500262        -0.798931
 C         3.536002         0.734766         0.654152
 O         2.111973         0.782914         0.922690
 C         4.019745        -0.597024         0.182480
 O         3.265956        -1.830425         0.109769
 C         1.858574        -1.507132         0.304831
 H        -0.659654        -0.295518        -0.660368
 H        -0.302366         0.877744         0.674095
 H        -0.004471         1.141673        -0.968870
 H         2.398249        -0.466330        -2.212988
 H         2.003632         1.304921        -1.694714
 H         4.576014         0.727815        -1.456305
 H         4.090168         1.198653         1.393588
 H         5.042313        -0.966468         0.380228
 H         1.344565        -2.167586        -0.356828
 H         1.488808        -1.755666         1.418500
