19
Iteration:  2345charge 0 multiplicity 1
 C         0.046990         0.450690        -0.208288
 C         1.569390         0.068681        -0.155957
 C         2.483717         0.939705        -1.050270
 C         3.768532         0.783794        -0.304753
 C         3.382762         0.180733         1.110439
 O         1.944263         0.331543         1.205692
 C         3.981186        -0.713126         0.092637
 O         3.358199        -1.689683        -0.705332
 C         1.970924        -1.590868        -0.303190
 H        -0.487644        -0.011844         0.567395
 H        -0.044147         1.515676        -0.166831
 H        -0.399102         0.072918        -1.220586
 H         2.450922         0.580815        -2.020906
 H         2.046754         1.938118        -1.070168
 H         4.698049         1.315007        -0.468372
 H         3.857955         0.233977         2.055579
 H         4.940839        -0.964416         0.419607
 H         1.402728        -1.993520        -1.127324
 H         1.672040        -2.032565         0.722310
