19
Iteration:   760
 C         0.083019         0.485997        -0.194960
 C         1.578707         0.026197        -0.143785
 C         2.585959         1.222397        -0.196921
 C         3.767800         0.720850         0.497550
 C         3.219998        -0.581003         1.196977
 O         1.804622        -0.533379         1.206506
 C         3.994565        -0.714833        -0.082331
 O         3.421650        -0.846112        -1.342563
 C         2.072243        -1.097316        -1.148991
 H        -0.196514         0.750968         0.803977
 H        -0.079197         1.475312        -0.850312
 H        -0.700815        -0.098775        -0.583903
 H         2.716744         1.605082        -1.253755
 H         2.045811         2.010732         0.440077
 H         4.503746         1.279119         1.069975
 H         3.642775        -0.841178         2.109650
 H         4.956722        -1.281634        -0.016760
 H         1.520370        -1.080676        -2.158301
 H         1.760950        -2.142860        -0.668228
