19
Iteration:  4161charge 0 multiplicity 1
 C         0.038008         0.463556        -0.141556
 C         1.472244        -0.067691        -0.145086
 C         2.302707        -0.080823        -1.449543
 C         3.693234         0.183615        -1.018937
 C         3.544601         0.837060         0.358805
 O         2.134743         1.035337         0.538470
 C         4.106822        -0.607229         0.218049
 O         3.313201        -1.767643         0.496701
 C         1.859823        -1.355769         0.702641
 H        -0.328683         0.377494         0.860382
 H        -0.083653         1.584878        -0.452375
 H        -0.615192        -0.141512        -0.896868
 H         2.239218        -0.953436        -2.176917
 H         2.064101         0.794663        -2.001341
 H         4.489646         0.396111        -1.663895
 H         4.148188         1.676717         0.864442
 H         5.159300        -0.640357         0.370850
 H         1.448573        -2.311843         0.381562
 H         1.524730        -1.162634         1.735483
