19
Iteration:   197charge 0 multiplicity 1
 C         0.041751         0.431962        -0.117599
 C         1.577716         0.116408        -0.129762
 C         2.564444         1.227760         0.256853
 C         3.714135         0.498899         0.769891
 C         3.167630        -0.810463         1.141441
 O         1.785150        -0.843363         0.988292
 C         4.048136        -0.705802        -0.117416
 O         3.542614        -0.643288        -1.472010
 C         2.067153        -0.582041        -1.476356
 H        -0.492239        -0.253362         0.617862
 H        -0.374091         1.432011         0.239195
 H        -0.487364         0.198397        -1.130050
 H         2.793300         2.016468        -0.471284
 H         2.152491         1.794918         1.118301
 H         4.417549         1.057320         1.436436
 H         3.503426        -1.445682         1.937303
 H         5.036229        -1.315854         0.002710
 H         1.895035         0.122743        -2.359778
 H         1.560969        -1.593482        -1.740342
