19
Iteration:  4891
 C         0.058325         0.291002        -0.093974
 C         1.546689        -0.045233        -0.197475
 C         2.290280        -0.104902        -1.607806
 C         3.733771         0.067663        -1.152285
 C         3.589019         0.810020         0.220039
 O         2.216454         0.982499         0.575513
 C         4.013620        -0.591614         0.209253
 O         3.236815        -1.545184         0.824537
 C         1.810829        -1.185884         0.705844
 H         0.000160         1.276007         0.146242
 H        -0.449044         0.340460        -1.139628
 H        -0.455890        -0.411770         0.558989
 H         1.981664        -1.141171        -1.938390
 H         1.752827         0.589731        -2.226988
 H         4.555458         0.375290        -1.882904
 H         4.292617         1.558738         0.590412
 H         5.112190        -0.811591         0.401116
 H         1.394486        -2.172120         0.219178
 H         1.478243        -1.107018         1.753774
