19
Iteration:  1549
 C         0.100973         0.350630        -0.298185
 C         1.565677         0.039665        -0.093168
 C         2.608994         1.097756        -0.669094
 C         3.756347         0.781031         0.139767
 C         3.337782        -0.112011         1.244902
 O         1.909836        -0.094136         1.290508
 C         4.026361        -0.756660         0.034819
 O         3.270933        -1.244706        -1.113085
 C         1.922241        -1.329422        -0.703254
 H        -0.579210         0.502004         0.672106
 H         0.035838         1.355737        -0.755373
 H        -0.329221        -0.275736        -1.086429
 H         2.722829         0.792035        -1.800206
 H         2.303149         2.179298        -0.746861
 H         4.468848         1.579355         0.206967
 H         3.855599        -0.216173         2.207741
 H         4.916004        -1.414453        -0.006135
 H         1.482557        -1.465828        -1.603440
 H         1.824829        -2.109055         0.066281
