19
Iteration:   272charge 0 multiplicity 1
 C         0.100165         0.432592        -0.114782
 C         1.528406         0.110105        -0.065950
 C         2.353522         1.340396         0.326841
 C         3.719598         0.638242         0.573252
 C         3.266719        -0.768285         1.110655
 O         1.832692        -0.832923         0.919250
 C         4.060561        -0.673087        -0.156894
 O         3.452409        -1.138938        -1.288351
 C         2.142669        -0.400464        -1.436946
 H         0.007018         1.091673        -1.037237
 H        -0.486036        -0.450832        -0.508877
 H        -0.425755         0.833441         0.727416
 H         2.438818         2.263700        -0.388825
 H         2.048299         1.636527         1.382738
 H         4.564380         1.186515         0.987144
 H         3.642246        -1.272275         1.952857
 H         5.167660        -0.893507        -0.009028
 H         2.250094         0.452455        -2.104587
 H         1.586914        -1.123411        -2.087727
