19
Iteration:  2522
 C         0.077051         0.352097        -0.262341
 C         1.572012        -0.025796        -0.181605
 C         2.467250         0.849174        -1.140562
 C         3.847033         0.716660        -0.365597
 C         3.379931         0.318777         1.069579
 O         1.995475         0.452719         1.148017
 C         4.035668        -0.694620         0.077170
 O         3.261899        -1.697231        -0.568001
 C         1.894026        -1.537620        -0.138949
 H        -0.239348         0.881855         0.669893
 H        -0.322236         0.976541        -1.129538
 H        -0.542533        -0.504933        -0.239745
 H         2.401068         0.605204        -2.268481
 H         2.144749         1.890224        -1.070529
 H         4.668088         1.332459        -0.709939
 H         3.894953         0.293546         2.033364
 H         5.070386        -1.068127         0.393961
 H         1.227205        -2.092097        -0.757524
 H         1.723942        -1.784753         0.969596
