19
Iteration:  4238
 C         0.066260         0.289195        -0.074529
 C         1.558387         0.041322        -0.248290
 C         2.245057         0.191671        -1.574731
 C         3.656348         0.030716        -1.105991
 C         3.575623         0.862173         0.335200
 O         2.216074         0.937568         0.652687
 C         4.040555        -0.631008         0.245362
 O         3.234769        -1.642549         0.896580
 C         1.896409        -1.389973         0.376054
 H        -0.188106         0.982953         0.752432
 H        -0.422333         0.657926        -1.078697
 H        -0.402354        -0.621899         0.306945
 H         1.787356        -0.575122        -2.304813
 H         2.191070         1.089318        -2.131358
 H         4.410059         0.331298        -1.832688
 H         4.361919         1.598412         0.652614
 H         5.086945        -0.741723         0.241773
 H         1.692732        -2.232306        -0.285473
 H         1.230309        -1.557235         1.347811
