19
Iteration:  1602
 C         0.059074         0.376956        -0.129150
 C         1.532734         0.065330        -0.231959
 C         2.449014         1.245700        -0.603202
 C         3.802987         0.796936        -0.013447
 C         3.365873         0.004376         1.220345
 O         1.972129        -0.156147         1.219996
 C         4.055097        -0.711748         0.055676
 O         3.304064        -1.662583        -0.724574
 C         1.938463        -1.169184        -1.043583
 H        -0.331843        -0.175166         0.744289
 H        -0.079982         1.452558        -0.213217
 H        -0.398924        -0.030097        -1.017426
 H         2.411371         1.406659        -1.745554
 H         2.073603         2.009175         0.055631
 H         4.712351         1.360470         0.139889
 H         3.873088         0.198804         2.169813
 H         5.071589        -1.138125         0.018725
 H         1.942759        -0.892767        -2.200396
 H         1.284428        -2.050315        -1.065177
