19
Iteration:  2369charge 0 multiplicity 1
 C         0.017578         0.255991        -0.215706
 C         1.550484         0.017128        -0.196499
 C         2.513038         0.941636        -0.953849
 C         3.843628         0.734078        -0.342915
 C         3.454356         0.294818         1.066356
 O         1.998078         0.309150         1.166514
 C         4.096750        -0.705486         0.112768
 O         3.223389        -1.707102        -0.533308
 C         1.834177        -1.415419        -0.404292
 H        -0.534992        -0.670699         0.009706
 H        -0.139576         1.071397         0.542293
 H        -0.311816         0.590551        -1.244986
 H         2.602218         0.684510        -2.076076
 H         2.214815         1.946403        -0.857666
 H         4.704999         1.389120        -0.447835
 H         3.905549         0.773665         1.942869
 H         5.173722        -1.011765         0.140824
 H         1.375594        -1.599021        -1.477213
 H         1.164382        -1.925421         0.417520
