19
Iteration:  3777
 C         0.070713         0.268682        -0.204314
 C         1.547633         0.025568        -0.125170
 C         2.305827         0.047898        -1.470284
 C         3.712555         0.252253        -0.997694
 C         3.590003         0.793403         0.505224
 O         2.255738         0.990460         0.780878
 C         4.055475        -0.548197         0.191831
 O         3.211480        -1.763030         0.424007
 C         1.772799        -1.360787         0.460947
 H        -0.537518         0.166192         0.763750
 H         0.075891         1.337483        -0.339641
 H        -0.509212        -0.273671        -1.050706
 H         2.095440        -1.090527        -1.849791
 H         1.833202         0.824307        -2.123261
 H         4.449643         0.541532        -1.724537
 H         4.188238         1.676713         0.927745
 H         5.133513        -0.712099         0.311281
 H         1.275415        -2.011638        -0.126613
 H         1.288050        -1.463407         1.491405
