19
Iteration:   179
 C         0.085487         0.450989        -0.197036
 C         1.550520         0.028440        -0.104632
 C         2.497032         1.209662         0.271074
 C         3.830621         0.496733         0.792627
 C         3.171526        -0.890025         1.142736
 O         1.729732        -0.841103         1.012134
 C         4.016965        -0.703304        -0.152995
 O         3.502962        -0.493045        -1.462048
 C         2.095024        -0.588671        -1.419586
 H        -0.292304         0.483198         0.775051
 H         0.150550         1.425209        -0.630341
 H        -0.601058        -0.153173        -0.847985
 H         2.625039         1.773501        -0.623653
 H         2.070966         1.764187         1.096963
 H         4.714460         0.889510         1.250143
 H         3.549549        -1.507342         1.933121
 H         4.973014        -1.164459        -0.182337
 H         1.678213        -0.242588        -2.335811
 H         1.856993        -1.615015        -1.382613
