19
Iteration:  4314
 C         0.071440         0.300097        -0.284368
 C         1.566873        -0.039085        -0.141554
 C         2.238632        -0.064896        -1.479876
 C         3.726110         0.185575        -1.064776
 C         3.548804         0.864894         0.386463
 O         2.216403         0.988055         0.717077
 C         4.092176        -0.581687         0.181843
 O         3.211050        -1.708822         0.517239
 C         1.813263        -1.298439         0.680043
 H        -0.399069         0.151047         0.621141
 H         0.032830         1.387521        -0.498803
 H        -0.480020        -0.257109        -0.982594
 H         2.115492        -1.038367        -2.049978
 H         1.870621         0.743674        -2.079207
 H         4.412412         0.598732        -1.860940
 H         4.149307         1.692468         0.724320
 H         5.133340        -0.748740         0.492712
 H         1.163638        -2.142489         0.660260
 H         1.897997        -0.875237         1.771800
