19
Iteration:   305
 C         0.053582         0.314374        -0.193747
 C         1.561533         0.162525        -0.113431
 C         2.523384         1.304064         0.185421
 C         3.752771         0.577265         0.686519
 C         3.286013        -0.738102         1.208077
 O         1.887521        -0.796164         0.951204
 C         4.009991        -0.677618        -0.092734
 O         3.383262        -0.943466        -1.287068
 C         1.997870        -0.477111        -1.463457
 H        -0.160107         1.348214         0.159367
 H        -0.084888         0.241647        -1.308610
 H        -0.503884        -0.486270         0.278425
 H         2.889990         2.076941        -0.605531
 H         2.043457         1.925784         1.031661
 H         4.613232         1.072830         1.051393
 H         3.561538        -1.321182         2.037824
 H         5.042482        -1.072806        -0.130166
 H         2.015427         0.236292        -2.265533
 H         1.442726        -1.432199        -1.629862
