19
Iteration:  3888
 C         0.087342         0.252561        -0.141796
 C         1.549867        -0.022389        -0.195640
 C         2.313001         0.136585        -1.569349
 C         3.730811         0.197665        -1.042073
 C         3.584201         0.839638         0.350050
 O         2.235236         0.983941         0.722456
 C         4.044113        -0.660734         0.173574
 O         3.199598        -1.692149         0.625585
 C         1.750757        -1.382987         0.595158
 H        -0.306047         0.369132        -1.132346
 H        -0.428334        -0.588205         0.353652
 H        -0.138764         1.247210         0.373702
 H         2.015318        -0.601399        -2.463567
 H         2.020371         1.138080        -1.974311
 H         4.609233         0.494015        -1.645940
 H         4.173316         1.681457         0.677147
 H         5.066216        -0.754692         0.510392
 H         1.434151        -2.279386        -0.077034
 H         1.300634        -1.321131         1.656991
