19
Iteration:  1197charge 0 multiplicity 1
 C         0.096873         0.379977        -0.197402
 C         1.531714         0.073749        -0.164988
 C         2.502185         1.313121        -0.433758
 C         3.835424         0.780042         0.206996
 C         3.317899        -0.241740         1.247743
 O         1.893945        -0.324271         1.195872
 C         4.030579        -0.706837        -0.037852
 O         3.349693        -1.429745        -1.040469
 C         1.957358        -1.075215        -1.027788
 H        -0.188016         1.111138         0.567692
 H        -0.261303         0.676505        -1.231861
 H        -0.492053        -0.506451         0.069361
 H         2.617821         1.577597        -1.525395
 H         2.092219         2.325837         0.129723
 H         4.667802         1.411727         0.558828
 H         3.646191        -0.475641         2.269083
 H         5.077612        -1.039839         0.133319
 H         1.671450        -0.962186        -2.145751
 H         1.423781        -1.988626        -0.572065
