19
Iteration:  2470
 C         0.018006         0.322356        -0.211554
 C         1.525144         0.022430        -0.151618
 C         2.462731         0.859620        -1.059318
 C         3.789847         0.745692        -0.428735
 C         3.499619         0.311181         1.079915
 O         2.084164         0.314197         1.205523
 C         4.054024        -0.687093         0.050907
 O         3.230381        -1.708826        -0.224744
 C         1.848879        -1.421993        -0.569398
 H        -0.268268         1.330692        -0.728377
 H        -0.568836        -0.521579        -0.712387
 H        -0.308207         0.285680         0.828609
 H         2.503716         0.245236        -2.059671
 H         2.256808         1.862149        -1.243661
 H         4.530165         1.476936        -0.733019
 H         4.057112         0.803522         1.846154
 H         5.075575        -0.973309         0.020800
 H         1.552284        -1.555402        -1.605670
 H         1.178827        -2.108836         0.057603
