19
Iteration:   731
 C         0.081212         0.523514        -0.170805
 C         1.567964         0.053741        -0.138339
 C         2.536400         1.245444        -0.176602
 C         3.721843         0.716981         0.521736
 C         3.252834        -0.571867         1.266821
 O         1.834429        -0.683651         1.109158
 C         4.053327        -0.593393        -0.101815
 O         3.453404        -1.038522        -1.262545
 C         1.982706        -0.941481        -1.209355
 H         0.092541         1.487480         0.345736
 H        -0.325049         0.628734        -1.181954
 H        -0.747643        -0.007470         0.397227
 H         2.788084         1.523397        -1.239583
 H         2.067877         2.107489         0.243935
 H         4.560492         1.195782         0.978994
 H         3.632306        -0.906675         2.252965
 H         5.169378        -0.825414        -0.175503
 H         1.690500        -0.664969        -2.197957
 H         1.528102        -1.839425        -1.020203
