19
Iteration:  4537
 C         0.116274         0.312611        -0.217072
 C         1.560005        -0.004684        -0.092463
 C         2.323781        -0.286431        -1.475004
 C         3.668871         0.177485        -1.088661
 C         3.542030         0.881329         0.251756
 O         2.188224         1.080687         0.593415
 C         4.048775        -0.576704         0.202630
 O         3.205966        -1.678720         0.530448
 C         1.810361        -1.224078         0.846411
 H         0.197564         1.329573        -0.797160
 H        -0.300859        -0.313476        -0.990317
 H        -0.395981         0.289980         0.754594
 H         2.257316        -1.347645        -1.698619
 H         1.790589         0.263093        -2.375936
 H         4.536669         0.466954        -1.727254
 H         4.185523         1.622052         0.683857
 H         5.103701        -0.800204         0.408766
 H         1.125711        -1.972102         0.477155
 H         1.771792        -0.939038         2.031603
