19
Iteration:   893
 C         0.007669         0.288756        -0.206874
 C         1.566077         0.083997        -0.159722
 C         2.516242         1.354057        -0.187326
 C         3.843324         0.766971         0.335171
 C         3.386218        -0.421164         1.273502
 O         1.888660        -0.506896         1.171728
 C         4.037563        -0.677594        -0.012331
 O         3.284088        -1.365733        -1.075320
 C         1.999561        -0.770884        -1.360372
 H        -0.089495         0.817049        -1.110483
 H        -0.483900        -0.645492        -0.157320
 H        -0.265377         0.777705         0.676989
 H         2.620450         1.995511        -1.128126
 H         2.127516         2.070974         0.557338
 H         4.722980         1.281093         0.703153
 H         3.669732        -0.446041         2.388029
 H         5.039569        -1.047062        -0.088886
 H         1.797862        -0.366400        -2.392271
 H         1.233054        -1.628520        -1.320718
