19
Iteration:  2294
 C        -0.026764         0.301046        -0.236382
 C         1.520426         0.020666        -0.142865
 C         2.562027         0.952427        -1.007218
 C         3.828143         0.779667        -0.292407
 C         3.466236         0.242414         1.136509
 O         2.075463         0.188906         1.242537
 C         4.028609        -0.668155         0.078962
 O         3.244467        -1.609677        -0.535075
 C         1.821968        -1.430561        -0.524230
 H        -0.331516         1.154641         0.412894
 H        -0.101739         0.710111        -1.282859
 H        -0.664777        -0.576752        -0.144213
 H         2.464903         0.480371        -2.101753
 H         2.118367         1.900149        -1.238602
 H         4.725166         1.355283        -0.402267
 H         3.815747         0.483422         2.116878
 H         5.014995        -1.084481         0.290235
 H         1.379932        -1.739521        -1.539808
 H         1.474083        -1.963112         0.297661
