19
Iteration:  1895
 C        -0.025669         0.319142        -0.271657
 C         1.534806         0.110304        -0.181024
 C         2.527732         1.108353        -0.760284
 C         3.847553         0.800993        -0.008840
 C         3.453511        -0.000746         1.165459
 O         2.006831         0.026167         1.309084
 C         4.044493        -0.710914         0.038014
 O         3.273019        -1.524023        -0.817873
 C         1.849249        -1.351011        -0.740871
 H        -0.484191        -0.561134         0.266078
 H        -0.418952         1.228946         0.138670
 H        -0.305633         0.242142        -1.289173
 H         2.653815         1.039693        -1.842484
 H         2.164702         2.113231        -0.672544
 H         4.671625         1.529433         0.060939
 H         4.055869         0.149959         2.128459
 H         5.005745        -1.203347         0.188049
 H         1.412732        -1.453481        -1.823059
 H         1.405867        -2.078506        -0.036114
