19
Iteration:  2039charge 0 multiplicity 1
 C         0.099408         0.272381        -0.079762
 C         1.613147         0.097907        -0.155870
 C         2.447341         1.186162        -0.794106
 C         3.756538         0.743119        -0.213500
 C         3.412238         0.247839         1.096784
 O         2.057975        -0.073548         1.144799
 C         4.016848        -0.732853         0.117582
 O         3.143002        -1.733089        -0.417155
 C         1.961045        -1.205909        -0.943387
 H        -0.374652         1.225669        -0.363176
 H        -0.360163        -0.388616        -0.834141
 H        -0.241843        -0.024623         0.919416
 H         2.431391         1.018041        -1.962755
 H         2.126640         2.220548        -0.696726
 H         4.620016         1.329259        -0.434930
 H         3.818776         0.447482         2.016581
 H         5.077973        -1.080094         0.136957
 H         2.291857        -0.916774        -2.004404
 H         1.131198        -1.884986        -0.872191
