19
Iteration:  4769charge 0 multiplicity 1
 C         0.007538         0.333688        -0.191673
 C         1.498995        -0.024078        -0.097018
 C         2.187083        -0.257844        -1.425813
 C         3.660214        -0.010954        -1.033797
 C         3.575925         0.886093         0.182780
 O         2.242181         1.169863         0.524411
 C         4.076142        -0.540429         0.263677
 O         3.313547        -1.675825         0.660677
 C         1.897057        -1.216501         0.694759
 H        -0.701934         0.035703         0.587438
 H        -0.023590         1.403561        -0.301259
 H        -0.316518        -0.254995        -1.132661
 H         2.013835        -1.251677        -1.892612
 H         2.111123         0.571003        -2.175935
 H         4.311811         0.137034        -1.850426
 H         4.389280         1.635741         0.262656
 H         5.044277        -0.666515         0.680963
 H         1.380875        -2.115545         0.330464
 H         1.490421        -1.051146         1.699474
