19
Iteration:  2701
 C         0.101270         0.360582        -0.176810
 C         1.513785        -0.051050        -0.183127
 C         2.461680         0.784296        -1.225020
 C         3.785982         0.693943        -0.506022
 C         3.470440         0.525574         0.980132
 O         2.069516         0.469088         1.082488
 C         3.981179        -0.694714         0.200409
 O         3.267940        -1.743627        -0.359081
 C         1.862961        -1.576457        -0.170428
 H        -0.040767         1.312461        -0.702858
 H        -0.564192        -0.273256        -0.747552
 H        -0.391363         0.285368         0.874226
 H         2.410652         0.245133        -2.275499
 H         2.019765         1.727279        -1.170504
 H         4.574168         1.248113        -0.994288
 H         3.936250         0.903849         1.888780
 H         5.051859        -1.003255         0.421579
 H         1.395698        -2.210496        -0.930751
 H         1.503118        -1.985328         0.902929
