19
Iteration:  3655charge 0 multiplicity 1
 C         0.051190         0.384826        -0.111944
 C         1.550175        -0.052006        -0.203285
 C         2.298780         0.185190        -1.571346
 C         3.716979         0.341496        -0.987342
 C         3.538819         0.784574         0.450324
 O         2.191731         0.812309         0.817511
 C         4.088449        -0.631657         0.107187
 O         3.244543        -1.691102         0.681638
 C         1.832917        -1.467293         0.332040
 H        -0.142583         1.364018        -0.664696
 H        -0.606162        -0.336747        -0.733252
 H        -0.317875         0.517043         0.897726
 H         1.964815        -0.565941        -2.382538
 H         2.227896         1.221058        -1.988887
 H         4.546716         0.764941        -1.591117
 H         4.077322         1.554642         0.947440
 H         5.127240        -0.889766         0.413772
 H         1.548782        -2.106976        -0.437108
 H         1.091902        -1.631415         1.257290
