19
Iteration:  1988
 C         0.128844         0.281238        -0.214152
 C         1.584657         0.009305        -0.127911
 C         2.421217         1.198384        -0.780695
 C         3.796040         0.835621        -0.188800
 C         3.458200         0.115889         1.201686
 O         2.020634        -0.013103         1.226487
 C         4.003770        -0.671326         0.056820
 O         3.232675        -1.742681        -0.618101
 C         1.881283        -1.259859        -0.830849
 H        -0.145266         0.388795        -1.245297
 H        -0.625046        -0.406694         0.283088
 H        -0.057253         1.347133         0.226674
 H         2.370926         1.329156        -1.870448
 H         2.047655         2.185284        -0.480281
 H         4.648425         1.485505        -0.262046
 H         3.896583         0.287080         2.182204
 H         5.054147        -1.059987         0.217501
 H         1.830919        -1.205664        -1.881386
 H         1.057335        -2.027517        -0.425211
