19
Iteration:  3169charge 0 multiplicity 1
 C         0.119138         0.299434        -0.233204
 C         1.585902        -0.030745        -0.138619
 C         2.443764         0.384706        -1.330839
 C         3.818729         0.568561        -0.781114
 C         3.539299         0.682048         0.746972
 O         2.108395         0.699379         1.037265
 C         4.029503        -0.590059         0.113136
 O         3.179401        -1.702823         0.064116
 C         1.696062        -1.534940         0.119362
 H        -0.278471         1.344051        -0.428826
 H        -0.366829        -0.352884        -0.926317
 H        -0.318614        -0.061465         0.759932
 H         2.518922        -0.363531        -2.081052
 H         2.136233         1.447987        -1.720120
 H         4.576839         0.934185        -1.461227
 H         4.058641         1.179020         1.497138
 H         5.066859        -0.973972         0.302710
 H         1.321796        -2.255790        -0.728317
 H         1.311470        -1.814982         1.098160
