19
Iteration:   987
 C         0.063684         0.483271        -0.129175
 C         1.576149         0.055531        -0.120671
 C         2.548707         1.245002        -0.399961
 C         3.746671         0.762364         0.388733
 C         3.313944        -0.376660         1.276238
 O         1.838776        -0.518416         1.155546
 C         4.041921        -0.667631        -0.034741
 O         3.386026        -1.216351        -1.165604
 C         1.997891        -1.039393        -1.139218
 H        -0.091351         0.953900         0.852815
 H        -0.082596         1.378407        -0.878836
 H        -0.606802        -0.403709        -0.347461
 H         2.595875         1.426889        -1.459756
 H         2.027750         2.177463        -0.023272
 H         4.584396         1.425974         0.463867
 H         3.660997        -0.546289         2.344394
 H         5.109470        -1.032787        -0.004657
 H         1.614796        -0.866358        -2.158023
 H         1.540155        -1.966709        -0.867902
