19
Iteration:  3484
 C         0.078663         0.258787        -0.134729
 C         1.575526        -0.020432        -0.199712
 C         2.354972         0.340805        -1.476946
 C         3.755774         0.328078        -0.865943
 C         3.556661         0.787470         0.561397
 O         2.193122         0.885785         0.789843
 C         4.019618        -0.647077         0.229164
 O         3.185475        -1.758922         0.341475
 C         1.805084        -1.458201         0.295883
 H        -0.317509        -0.298193         0.758571
 H        -0.160860         1.262953        -0.021538
 H        -0.469208        -0.167526        -0.983168
 H         2.027083        -0.385210        -2.248106
 H         2.078174         1.318465        -1.882714
 H         4.599311         0.754931        -1.448781
 H         4.232644         1.439227         1.135660
 H         5.014890        -0.933306         0.547607
 H         1.357318        -2.212950        -0.353922
 H         1.249647        -1.505216         1.364992
