19
Iteration:  4264
 C         0.035319         0.349240        -0.103371
 C         1.518227        -0.080599        -0.117160
 C         2.256615         0.015633        -1.485570
 C         3.712072         0.135930        -1.048325
 C         3.588366         0.856402         0.277081
 O         2.230248         1.057955         0.595445
 C         4.057496        -0.586600         0.305379
 O         3.224076        -1.644273         0.732283
 C         1.841110        -1.458257         0.412379
 H        -0.129814         1.086027         0.850716
 H        -0.202677         0.910824        -1.051751
 H        -0.676505        -0.450822         0.179660
 H         2.024701        -0.694308        -2.251964
 H         2.010640         1.050789        -1.913045
 H         4.471407         0.307754        -1.854691
 H         4.327837         1.539353         0.612711
 H         5.164784        -0.733962         0.484057
 H         1.676371        -2.140969        -0.507656
 H         1.376333        -1.892132         1.213092
