19
Iteration:  3322charge 0 multiplicity 1
 C         0.066381         0.344564        -0.250833
 C         1.510934         0.015275        -0.099255
 C         2.412687         0.238937        -1.448225
 C         3.797613         0.500738        -0.860291
 C         3.472119         0.635452         0.740085
 O         2.116135         0.789499         0.989407
 C         4.068837        -0.649512         0.119483
 O         3.217103        -1.746369         0.083828
 C         1.827467        -1.439899         0.314695
 H        -0.259982        -0.482356        -1.000083
 H        -0.354189         0.311341         0.731801
 H        -0.054927         1.452002        -0.664370
 H         2.274701        -0.593716        -2.054426
 H         2.089117         1.142708        -2.108462
 H         4.473827         1.254091        -1.252330
 H         4.128680         1.399218         1.319506
 H         5.100748        -0.847161         0.405353
 H         1.205083        -2.245552        -0.176590
 H         1.612398        -1.457066         1.320575
