19
Iteration:  1987charge 0 multiplicity 1
 C         0.134505         0.283093        -0.220302
 C         1.593074         0.010546        -0.127008
 C         2.418720         1.201589        -0.786702
 C         3.794798         0.836494        -0.194060
 C         3.454473         0.112301         1.208956
 O         2.020651        -0.021875         1.235291
 C         4.007831        -0.667282         0.060508
 O         3.231953        -1.736553        -0.623257
 C         1.872410        -1.260354        -0.822555
 H        -0.146873         0.376656        -1.253577
 H        -0.603927        -0.385356         0.309522
 H        -0.063533         1.351638         0.192250
 H         2.368929         1.317715        -1.910357
 H         2.066434         2.160560        -0.489811
 H         4.633451         1.496965        -0.258191
 H         3.896056         0.262901         2.156315
 H         5.052408        -1.051345         0.227132
 H         1.808509        -1.212321        -1.895955
 H         1.056712        -2.037367        -0.423066
