19
Iteration:   247charge 0 multiplicity 1
 C         0.063622         0.434266        -0.172671
 C         1.562952         0.100673        -0.194528
 C         2.408559         1.319691         0.309498
 C         3.794892         0.661484         0.701319
 C         3.283719        -0.741289         1.239791
 O         1.893592        -0.958424         0.889288
 C         4.077870        -0.681840        -0.105755
 O         3.358887        -1.059914        -1.308271
 C         2.059127        -0.364586        -1.518077
 H        -0.577428         0.242725        -1.097643
 H        -0.401665        -0.173524         0.611612
 H        -0.108845         1.458060         0.087961
 H         2.596704         2.154758        -0.460480
 H         1.910751         1.706614         1.212724
 H         4.646531         1.133957         1.268799
 H         3.548132        -1.126822         2.275274
 H         5.141015        -0.915562        -0.194639
 H         2.146506         0.455266        -2.215033
 H         1.467179        -1.056119        -2.061777
