19
Iteration:  2844
 C         0.051730         0.323968        -0.187750
 C         1.555214        -0.066056        -0.216705
 C         2.349909         0.846471        -1.211126
 C         3.783359         0.653801        -0.684170
 C         3.547132         0.556990         0.870590
 O         2.155096         0.443502         1.057602
 C         4.008651        -0.649284         0.132277
 O         3.213486        -1.812532         0.145516
 C         1.845028        -1.560942        -0.290140
 H        -0.738713        -0.384921        -0.586439
 H        -0.237323         0.515909         0.820112
 H        -0.196315         1.305934        -0.796053
 H         2.280531         0.535348        -2.408707
 H         2.078292         1.869531        -1.165218
 H         4.634612         1.124083        -1.162988
 H         4.168063         1.030250         1.683076
 H         5.025425        -0.904733         0.147222
 H         1.694716        -2.084317        -1.308510
 H         1.124040        -2.005362         0.460348
