19
Iteration:  1430
 C         0.035848         0.316254        -0.165563
 C         1.594941         0.152172        -0.178654
 C         2.446342         1.398207        -0.475066
 C         3.781723         0.761807        -0.027468
 C         3.372252        -0.079005         1.142816
 O         1.960723        -0.256406         1.156526
 C         4.032922        -0.702872        -0.022915
 O         3.266142        -1.730189        -0.631499
 C         1.993985        -1.078621        -1.122612
 H        -0.141031         1.411834        -0.369807
 H        -0.442691        -0.316566        -0.865383
 H        -0.210623        -0.064550         0.802420
 H         2.241234         1.836647        -1.394498
 H         2.122097         2.216266         0.226092
 H         4.628627         1.494212         0.086815
 H         3.749469        -0.007374         2.197092
 H         5.090703        -0.856545         0.118487
 H         2.259583        -0.782886        -2.159818
 H         1.391438        -2.026769        -0.983819
