19
Iteration:  1520charge 0 multiplicity 1
 C         0.018616         0.450270        -0.412308
 C         1.561693         0.001668        -0.109366
 C         2.514801         1.157508        -0.513819
 C         3.808693         0.770516         0.071485
 C         3.373366        -0.111198         1.220574
 O         1.896397        -0.067866         1.321941
 C         4.070409        -0.712491        -0.048171
 O         3.341328        -1.398686        -1.028661
 C         1.944834        -1.377543        -0.741502
 H        -0.412666         0.621569         0.600806
 H        -0.120818         1.417302        -0.847776
 H        -0.618381        -0.288813        -0.912169
 H         2.425735         1.263388        -1.523648
 H         2.096215         2.112139        -0.106014
 H         4.613459         1.450495         0.165817
 H         3.865701        -0.143610         2.152309
 H         5.117261        -1.159737        -0.081641
 H         1.499244        -1.348547        -1.821696
 H         1.640748        -2.253637        -0.059496
