19
Iteration:  4784charge 0 multiplicity 1
 C         0.096893         0.315826        -0.211996
 C         1.556307        -0.011224        -0.089636
 C         2.259400        -0.183829        -1.504952
 C         3.700921         0.016288        -1.137669
 C         3.563405         0.913295         0.129947
 O         2.234384         1.064577         0.592953
 C         4.058647        -0.556253         0.222177
 O         3.218471        -1.561661         0.781594
 C         1.822013        -1.341564         0.744962
 H        -0.296413         0.196806         0.771237
 H         0.017903         1.368050        -0.614999
 H        -0.506917        -0.250740        -0.846444
 H         1.964740        -1.218494        -1.912677
 H         1.782436         0.543462        -2.137146
 H         4.500062         0.238001        -1.917884
 H         4.111792         1.810909         0.319622
 H         5.155819        -0.807341         0.287731
 H         1.272512        -2.120541         0.312689
 H         1.487951        -1.250113         1.799440
