19
Iteration:  1000charge 0 multiplicity 1
 C         0.049466         0.392654        -0.145179
 C         1.521871         0.081616        -0.184276
 C         2.461416         1.289926        -0.290908
 C         3.831748         0.796834         0.320837
 C         3.285127        -0.372970         1.226076
 O         1.942313        -0.428514         1.155134
 C         4.043147        -0.683568        -0.017007
 O         3.408921        -1.366680        -1.095610
 C         1.937298        -0.960908        -1.182977
 H        -0.287145         0.454963         0.907369
 H        -0.242002         1.416822        -0.801811
 H        -0.702767        -0.352139        -0.578439
 H         2.739992         1.480608        -1.344055
 H         2.188462         2.263054         0.197229
 H         4.628900         1.399222         0.749002
 H         3.685884        -0.727412         2.225119
 H         5.053310        -1.020042         0.032259
 H         1.839067        -0.542661        -2.201203
 H         1.335493        -1.832853        -1.002749
