19
Iteration:  3633
 C         0.020780         0.309490        -0.161645
 C         1.590684        -0.044615        -0.198674
 C         2.248434         0.381642        -1.433413
 C         3.726576         0.272708        -1.022148
 C         3.654522         0.734584         0.456632
 O         2.206101         0.840030         0.697747
 C         4.005421        -0.619164         0.224644
 O         3.218523        -1.659530         0.665043
 C         1.860038        -1.557966         0.329991
 H        -0.332761         0.922779        -1.069869
 H        -0.713589        -0.594929        -0.235498
 H        -0.134068         0.979037         0.669802
 H         2.136989        -0.251113        -2.396471
 H         1.935225         1.445663        -1.556151
 H         4.559865         0.497219        -1.717119
 H         4.181360         1.571067         0.914624
 H         5.055881        -0.942460         0.177166
 H         1.542271        -2.363103        -0.341670
 H         1.124508        -1.498837         1.296319
