19
Iteration:  2843
 C         0.048957         0.330498        -0.188166
 C         1.549660        -0.059532        -0.209780
 C         2.354477         0.841261        -1.206287
 C         3.787009         0.663638        -0.686935
 C         3.549211         0.561854         0.868266
 O         2.155244         0.442172         1.057558
 C         4.017468        -0.653807         0.139161
 O         3.204337        -1.804446         0.143392
 C         1.837760        -1.576177        -0.294614
 H        -0.736158        -0.436205        -0.561894
 H        -0.244082         0.518413         0.829426
 H        -0.190712         1.276526        -0.821800
 H         2.283538         0.520698        -2.387290
 H         2.101664         1.847540        -1.157900
 H         4.622376         1.130970        -1.156348
 H         4.193255         1.022554         1.635829
 H         5.044586        -0.902955         0.154558
 H         1.702736        -2.108311        -1.333560
 H         1.157085        -2.007969         0.412965
