19
Iteration:  1174
 C         0.047932         0.429581        -0.352467
 C         1.526225         0.099695        -0.117170
 C         2.522348         1.259635        -0.345716
 C         3.839355         0.753887         0.272851
 C         3.343669        -0.329716         1.226451
 O         1.888478        -0.243622         1.255398
 C         4.055024        -0.730996        -0.071830
 O         3.363984        -1.228452        -1.198727
 C         1.918149        -1.277754        -0.887237
 H        -0.225907         1.446771        -0.207518
 H        -0.346929         0.012245        -1.325886
 H        -0.481571        -0.074167         0.466993
 H         2.747357         1.562280        -1.415345
 H         1.991012         2.188487         0.271709
 H         4.730789         1.393278         0.418117
 H         3.714154        -0.500363         2.200011
 H         5.042425        -1.070192         0.085958
 H         1.494423        -1.279090        -1.963198
 H         1.680033        -2.226142        -0.282800
