19
Iteration:   725charge 0 multiplicity 1
 C         0.029892         0.506814        -0.172263
 C         1.526149         0.046504        -0.156065
 C         2.556747         1.264160        -0.181791
 C         3.743381         0.727204         0.527972
 C         3.296280        -0.609450         1.236608
 O         1.862050        -0.679055         1.111518
 C         4.049142        -0.600171        -0.062859
 O         3.402788        -1.072893        -1.213420
 C         2.000698        -0.907711        -1.258064
 H         0.067885         1.584634         0.131734
 H        -0.358189         0.503720        -1.212968
 H        -0.539420        -0.081671         0.547622
 H         2.810749         1.662423        -1.157594
 H         2.186170         2.148378         0.420779
 H         4.520578         1.413475         0.936287
 H         3.642813        -0.702828         2.288247
 H         5.051171        -0.870294        -0.204690
 H         1.847004        -0.432744        -2.284428
 H         1.521301        -1.986939        -1.186220
