19
Iteration:   799
 C         0.041678         0.303686        -0.284677
 C         1.598205         0.117575        -0.095348
 C         2.588922         1.372854        -0.163411
 C         3.804464         0.678918         0.460626
 C         3.241290        -0.504587         1.186036
 O         1.873334        -0.514828         1.231766
 C         3.974410        -0.740426        -0.076117
 O         3.391210        -1.110832        -1.274649
 C         1.975098        -0.831020        -1.161873
 H        -0.299205        -0.668292         0.218742
 H        -0.329100         1.215112         0.083690
 H        -0.285652         0.229390        -1.402508
 H         2.699429         1.641390        -1.192632
 H         2.234934         2.251313         0.361583
 H         4.599452         1.181468         1.055132
 H         3.815701        -0.812077         2.103302
 H         4.944187        -1.132223         0.044451
 H         1.612458        -0.560454        -2.127367
 H         1.503006        -1.750451        -0.988571
