19
Iteration:  3457charge 0 multiplicity 1
 C        -0.046157         0.454096        -0.145057
 C         1.533620        -0.053247        -0.131264
 C         2.339689         0.378050        -1.502307
 C         3.761721         0.344633        -0.906490
 C         3.526655         0.717657         0.576832
 O         2.142699         0.816253         0.812919
 C         4.057245        -0.647615         0.149715
 O         3.298013        -1.802467         0.497298
 C         1.909864        -1.514891         0.211874
 H        -0.452166         0.770075         0.804862
 H        -0.137692         1.343732        -0.924558
 H        -0.762070        -0.348870        -0.470391
 H         1.958255        -0.342242        -2.262209
 H         1.966612         1.369220        -1.798157
 H         4.620639         0.757050        -1.410493
 H         4.098882         1.391654         1.186128
 H         5.099839        -0.935925         0.400660
 H         1.639423        -2.219766        -0.659273
 H         1.352396        -1.780359         1.018952
