19
Iteration:  3242charge 0 multiplicity 1
 C         0.081922         0.221204        -0.122467
 C         1.505880        -0.018948        -0.194936
 C         2.343236         0.476069        -1.453172
 C         3.760595         0.495741        -0.781159
 C         3.639711         0.725874         0.648954
 O         2.217527         0.708305         0.954871
 C         4.070132        -0.666709         0.194144
 O         3.108650        -1.699063         0.395822
 C         1.768347        -1.501258        -0.053708
 H        -0.311894         0.007206         0.963429
 H        -0.331411         1.297179        -0.289603
 H        -0.258485        -0.450222        -0.885856
 H         2.246355        -0.257281        -2.368016
 H         2.156935         1.503347        -1.791166
 H         4.527707         1.029471        -1.374850
 H         4.215397         1.343939         1.248601
 H         5.135279        -0.988470         0.277243
 H         1.653785        -1.957141        -1.053118
 H         1.129599        -2.086361         0.702824
