19
Iteration:  3808
 C         0.062215         0.460394        -0.095502
 C         1.487453        -0.121472        -0.172256
 C         2.305407         0.104103        -1.561659
 C         3.715445         0.278053        -1.052490
 C         3.573738         0.749635         0.389499
 O         2.228796         0.834575         0.673238
 C         4.127703        -0.567455         0.263183
 O         3.214233        -1.601575         0.647057
 C         1.799259        -1.525222         0.434850
 H        -0.699398        -0.180275         0.467686
 H         0.146092         1.372859         0.441240
 H        -0.296943         0.852371        -1.032689
 H         2.060062        -0.767289        -2.266819
 H         1.955736         1.090006        -1.984391
 H         4.438005         0.941880        -1.508466
 H         4.036258         1.716120         0.658924
 H         5.208022        -0.800736         0.409303
 H         1.418330        -2.436018        -0.234121
 H         1.217244        -1.681499         1.342992
