19
Iteration:  4111charge 0 multiplicity 1
 C        -0.052179         0.111928        -0.246935
 C         1.535883         0.091564        -0.092635
 C         2.260990        -0.090943        -1.414040
 C         3.726492         0.131432        -1.074490
 C         3.647047         0.853141         0.377074
 O         2.274196         1.161302         0.694890
 C         4.078963        -0.681548         0.151691
 O         3.159477        -1.694860         0.516217
 C         1.879760        -1.189241         0.604313
 H        -0.618787        -0.557877         0.449687
 H        -0.285195         1.091945         0.169529
 H        -0.385738         0.082324        -1.202299
 H         2.083178        -1.110308        -1.687540
 H         2.001309         0.625204        -2.274693
 H         4.578798         0.407278        -1.716412
 H         4.230527         1.716758         0.744712
 H         5.088511        -1.000095         0.339923
 H         1.214828        -2.072436         0.271794
 H         1.656125        -0.973178         1.748234
