19
Iteration:   300charge 0 multiplicity 1
 C         0.050529         0.335985        -0.211954
 C         1.572769         0.170632        -0.111056
 C         2.504683         1.325462         0.229821
 C         3.733458         0.584371         0.692086
 C         3.267555        -0.709755         1.185145
 O         1.887048        -0.831878         0.966338
 C         3.996343        -0.680121        -0.132670
 O         3.367165        -0.996599        -1.310273
 C         2.076890        -0.456067        -1.436576
 H        -0.244305         1.394254        -0.017756
 H        -0.218830         0.092140        -1.251754
 H        -0.477042        -0.400278         0.449080
 H         2.783753         1.977630        -0.572118
 H         2.197137         1.936853         1.037982
 H         4.617755         1.145272         1.110516
 H         3.739772        -1.251538         2.066456
 H         5.023677        -1.057523        -0.076738
 H         1.968423         0.272846        -2.314929
 H         1.529100        -1.362612        -1.661603
