19
Iteration:   263charge 0 multiplicity 1
 C         0.053179         0.435323        -0.146193
 C         1.558731         0.117218        -0.131224
 C         2.398483         1.254580         0.364950
 C         3.681088         0.582172         0.582750
 C         3.288723        -0.726866         1.124096
 O         1.893299        -0.840407         0.911236
 C         4.024097        -0.653264        -0.114171
 O         3.391417        -1.077664        -1.260523
 C         2.212390        -0.401922        -1.498023
 H        -0.182492         0.883227        -1.094309
 H        -0.571049        -0.469441         0.051183
 H        -0.202866         1.272632         0.622692
 H         2.295628         2.079785        -0.339633
 H         2.014665         1.647117         1.343485
 H         4.424956         1.251028         0.910484
 H         3.637905        -1.227717         1.977406
 H         5.049220        -1.025946        -0.142855
 H         2.344194         0.481027        -2.197949
 H         1.452746        -1.160223        -1.887801
