19
Iteration:  3774
 C         0.070177         0.249314        -0.211008
 C         1.562213         0.027594        -0.113695
 C         2.294233         0.043322        -1.461190
 C         3.714370         0.252725        -1.002494
 C         3.599754         0.794502         0.515806
 O         2.258554         1.010300         0.775303
 C         4.049008        -0.555767         0.221782
 O         3.200524        -1.757155         0.393721
 C         1.762040        -1.355968         0.485062
 H        -0.533701         0.176500         0.723111
 H         0.026496         1.320036        -0.502045
 H        -0.378733        -0.356839        -0.938854
 H         2.099396        -0.959441        -1.897319
 H         1.806052         0.828047        -2.108586
 H         4.435589         0.631554        -1.733386
 H         4.203730         1.579194         0.840279
 H         5.152242        -0.811353         0.298557
 H         1.271319        -2.122834        -0.200789
 H         1.377705        -1.422931         1.489425
