19
Iteration:   159charge 0 multiplicity 1
 C         0.134786         0.540447        -0.267532
 C         1.558212         0.121944        -0.072990
 C         2.538605         1.247817         0.270695
 C         3.676246         0.464402         0.810005
 C         3.177859        -0.973866         1.032529
 O         1.799279        -0.941020         0.993741
 C         4.059492        -0.624478        -0.182010
 O         3.468783        -0.491706        -1.428431
 C         2.057255        -0.656045        -1.289074
 H        -0.239584         1.256841         0.498132
 H         0.028439         0.791324        -1.304500
 H        -0.382372        -0.389389        -0.151310
 H         2.937571         1.825593        -0.636311
 H         2.116989         1.864363         1.088545
 H         4.252977         1.011929         1.516133
 H         3.612079        -1.624591         1.790426
 H         5.019930        -0.980486        -0.203750
 H         1.603645        -0.203329        -2.159495
 H         1.747239        -1.721464        -1.262769
