19
Iteration:   243charge 0 multiplicity 1
 C         0.082158         0.428011        -0.158475
 C         1.542640         0.095972        -0.176995
 C         2.450898         1.356230         0.282737
 C         3.788799         0.625445         0.738007
 C         3.291472        -0.732564         1.218652
 O         1.882787        -0.970036         0.868929
 C         4.077471        -0.666596        -0.078824
 O         3.370039        -1.054570        -1.312216
 C         2.036679        -0.372523        -1.521012
 H        -0.445700         0.054487        -0.992951
 H        -0.326254        -0.131884         0.678028
 H        -0.266841         1.580507        -0.140222
 H         2.510799         2.113074        -0.408758
 H         1.941589         1.791966         1.130332
 H         4.569845         1.138557         1.253931
 H         3.557226        -1.138815         2.188868
 H         5.095868        -0.932807        -0.211931
 H         2.071372         0.576703        -2.161005
 H         1.424572        -1.139415        -2.054112
