19
Iteration:  2790
 C         0.063038         0.333771        -0.156292
 C         1.567237         0.019202        -0.204524
 C         2.362679         0.804788        -1.256685
 C         3.808578         0.654705        -0.612779
 C         3.442755         0.531255         0.948719
 O         2.096032         0.517608         1.061682
 C         4.031301        -0.713136         0.113419
 O         3.280856        -1.861979        -0.070771
 C         1.845259        -1.530577        -0.229836
 H        -0.227182        -0.161276         0.761695
 H        -0.193731         1.337526         0.057133
 H        -0.493065        -0.071364        -1.076021
 H         2.373643         0.300909        -2.310377
 H         2.097437         1.849358        -1.316581
 H         4.624544         1.281219        -0.906276
 H         3.986579         1.098916         1.700530
 H         4.998526        -0.975856         0.424266
 H         1.550081        -1.941195        -1.166578
 H         1.225090        -2.049083         0.630820
