19
Iteration:  4096
 C        -0.028065         0.257306        -0.243352
 C         1.494221        -0.018216        -0.082002
 C         2.246309         0.028735        -1.419127
 C         3.719426         0.180703        -1.058036
 C         3.675989         0.797748         0.277189
 O         2.256769         1.092127         0.619058
 C         4.086728        -0.623309         0.173600
 O         3.259308        -1.675660         0.622741
 C         1.795492        -1.341207         0.695066
 H        -0.616912        -0.502858         0.268330
 H        -0.471048         1.313731        -0.036384
 H        -0.209671         0.050474        -1.376450
 H         2.067476        -0.891170        -2.071170
 H         1.891631         0.860942        -1.998531
 H         4.293474         0.411809        -1.919666
 H         4.450703         1.456934         0.741909
 H         5.126886        -0.893488         0.338006
 H         1.237165        -2.188062         0.245291
 H         1.520788        -1.275903         1.707321
