19
Iteration:  3662charge 0 multiplicity 1
 C         0.063462         0.378491        -0.117799
 C         1.590881         0.017216        -0.166186
 C         2.281650         0.098523        -1.530648
 C         3.722532         0.326338        -1.001206
 C         3.546950         0.806815         0.446951
 O         2.195971         0.788833         0.817926
 C         4.089090        -0.602396         0.178740
 O         3.213579        -1.694569         0.628484
 C         1.814645        -1.440297         0.287999
 H        -0.023888         1.382417        -0.434883
 H        -0.477406        -0.269166        -0.860341
 H        -0.371092         0.322057         0.869803
 H         2.150346        -0.727498        -2.173551
 H         1.908392         1.117407        -1.970463
 H         4.460992         0.824200        -1.621966
 H         4.140814         1.718624         0.851429
 H         5.110606        -0.819427         0.335377
 H         1.475065        -2.184697        -0.519635
 H         1.188299        -1.516787         1.100297
