19
Iteration:  3843
 C         0.038698         0.261358        -0.157875
 C         1.558537         0.027664        -0.075776
 C         2.255692         0.199788        -1.530497
 C         3.663344         0.148095        -1.070660
 C         3.602767         0.755636         0.352932
 O         2.276837         0.975050         0.764455
 C         4.050825        -0.638536         0.178650
 O         3.187263        -1.603888         0.759552
 C         1.853109        -1.436647         0.346922
 H        -0.490820        -0.637085        -0.555448
 H        -0.345637         0.438685         0.827084
 H        -0.197982         1.101184        -0.891088
 H         1.907892        -0.742923        -2.192052
 H         2.105158         1.094943        -2.174919
 H         4.514175         0.569549        -1.581217
 H         4.286574         1.651024         0.538254
 H         5.045711        -0.994316         0.261026
 H         1.620633        -2.118267        -0.531019
 H         1.278159        -1.725400         1.289038
