19
Iteration:  4908charge 0 multiplicity 1
 C         0.053015         0.331494        -0.232583
 C         1.501124        -0.105098        -0.124204
 C         2.240615        -0.195837        -1.489930
 C         3.674592         0.094767        -1.078926
 C         3.636928         0.876396         0.183580
 O         2.275705         1.011969         0.625964
 C         4.124632        -0.525534         0.220815
 O         3.174811        -1.587691         0.655594
 C         1.810808        -1.284723         0.752653
 H        -0.082560         1.513076        -0.080187
 H        -0.404728         0.170780        -1.163012
 H        -0.442770        -0.296266         0.593250
 H         2.121260        -1.136523        -2.026423
 H         2.164789         0.708853        -2.147975
 H         4.411944         0.300181        -1.807269
 H         4.095660         1.829009         0.384739
 H         5.144201        -0.803322         0.469378
 H         1.231534        -2.165001         0.656383
 H         1.476829        -0.826375         1.722487
