19
Iteration:  1781charge 0 multiplicity 1
 C         0.026581         0.276729        -0.267226
 C         1.566075         0.102525        -0.198573
 C         2.531159         1.174584        -0.638773
 C         3.867094         0.796356        -0.029110
 C         3.389213         0.036607         1.192433
 O         1.972744        -0.073502         1.245688
 C         4.059796        -0.713149         0.027908
 O         3.211232        -1.610790        -0.779950
 C         1.886348        -1.222844        -0.820172
 H        -0.175850         1.265064        -0.595060
 H        -0.384256        -0.445340        -0.996649
 H        -0.304555         0.072322         0.782241
 H         2.535205         1.395181        -1.700556
 H         2.153712         2.201107        -0.224875
 H         4.732824         1.518303        -0.137610
 H         4.013253         0.035368         2.089781
 H         5.044172        -1.078252         0.156602
 H         1.611527        -1.199586        -1.977703
 H         1.330249        -1.879484        -0.179118
