19
Iteration:  3812
 C         0.066919         0.441296        -0.111206
 C         1.486300        -0.154215        -0.165780
 C         2.276313         0.132915        -1.546027
 C         3.702057         0.264089        -1.058622
 C         3.568978         0.779997         0.397092
 O         2.251581         0.821384         0.661694
 C         4.146639        -0.556118         0.243210
 O         3.209829        -1.608355         0.675747
 C         1.776585        -1.527776         0.415724
 H        -0.648285        -0.196493         0.388534
 H         0.254308         1.312072         0.569749
 H        -0.348151         0.986850        -1.050312
 H         2.018865        -0.710735        -2.353016
 H         2.019488         1.089325        -2.030758
 H         4.528151         0.785299        -1.552126
 H         4.059279         1.756752         0.720595
 H         5.152893        -0.732891         0.525206
 H         1.479503        -2.221149        -0.246781
 H         1.240740        -1.670247         1.422615
