19
Iteration:  1066charge 0 multiplicity 1
 C         0.020024         0.310608        -0.180421
 C         1.542311         0.118005        -0.184568
 C         2.404696         1.393212        -0.261990
 C         3.810031         0.736569         0.187460
 C         3.390626        -0.248571         1.226573
 O         1.964043        -0.454816         1.137143
 C         4.091699        -0.703568        -0.077018
 O         3.191546        -1.567891        -0.800027
 C         2.086860        -0.818432        -1.291635
 H        -0.529280        -0.648325        -0.215322
 H        -0.077250         0.917045         0.851498
 H        -0.284076         0.975398        -1.040749
 H         2.453126         1.546218        -1.308319
 H         1.906253         2.074988         0.426269
 H         4.692659         1.339225         0.470531
 H         3.678108        -0.409449         2.231529
 H         5.102619        -0.882038        -0.215592
 H         2.450684        -0.159141        -2.098457
 H         1.375931        -1.513354        -1.652893
