19
Iteration:  1689charge 0 multiplicity 1
 C         0.075261         0.389594        -0.151747
 C         1.561865         0.088775        -0.186951
 C         2.510802         1.178581        -0.689884
 C         3.782330         0.799792         0.006837
 C         3.342337        -0.006204         1.184907
 O         1.917603        -0.097472         1.265721
 C         4.055640        -0.729451         0.070253
 O         3.339726        -1.608347        -0.845816
 C         1.925838        -1.234486        -0.920993
 H        -0.529207        -0.229122        -0.887011
 H        -0.304851         0.008607         0.799835
 H        -0.279238         1.401170        -0.229472
 H         2.524734         0.997060        -1.865082
 H         2.248964         2.198401        -0.559900
 H         4.614006         1.450276         0.136042
 H         3.777168         0.130312         2.133515
 H         5.119429        -1.075868         0.217064
 H         1.716572        -1.043740        -1.925394
 H         1.364608        -2.037210        -0.422399
