19
Iteration:   520charge 0 multiplicity 1
 C         0.168678         0.371744        -0.189444
 C         1.613072         0.126567        -0.097846
 C         2.459825         1.345213         0.149286
 C         3.765576         0.704510         0.505673
 C         3.204004        -0.625794         1.179289
 O         1.830135        -0.672819         1.029231
 C         4.036925        -0.733420        -0.098793
 O         3.416780        -1.046155        -1.330100
 C         2.023791        -0.772297        -1.298496
 H        -0.288455         0.890366         0.738549
 H         0.108464         1.180791        -1.039592
 H        -0.388854        -0.489490        -0.471227
 H         2.492170         1.917136        -0.774477
 H         2.051984         2.021927         0.926158
 H         4.471145         1.330909         1.026478
 H         3.643334        -0.897062         2.194465
 H         4.985548        -1.205145        -0.019432
 H         1.656218        -0.200006        -2.274869
 H         1.473881        -1.705651        -1.444449
