19
Iteration:  2707charge 0 multiplicity 1
 C         0.051557         0.348615        -0.200740
 C         1.558734        -0.056238        -0.141793
 C         2.423403         0.710992        -1.227596
 C         3.829975         0.718597        -0.496938
 C         3.456103         0.476892         0.996889
 O         2.095207         0.506434         1.082999
 C         3.983633        -0.643229         0.200896
 O         3.261718        -1.723690        -0.389021
 C         1.818294        -1.601255        -0.136689
 H         0.011578         1.429847        -0.474387
 H        -0.412789        -0.323860        -0.983403
 H        -0.350969         0.266067         0.757062
 H         2.528535         0.317753        -2.209992
 H         1.960846         1.769267        -1.285672
 H         4.724082         1.198136        -0.957202
 H         3.938280         0.924300         1.888739
 H         4.976697        -0.998647         0.296219
 H         1.298633        -2.182873        -0.965737
 H         1.573739        -2.013158         0.775125
