19
Iteration:  3113charge 0 multiplicity 1
 C         0.053238         0.340823        -0.192335
 C         1.581108        -0.071426        -0.110569
 C         2.417834         0.540573        -1.350064
 C         3.824364         0.524536        -0.724133
 C         3.431875         0.598314         0.808217
 O         2.059253         0.758076         0.927265
 C         4.012661        -0.685481         0.132964
 O         3.247524        -1.807240        -0.086114
 C         1.878150        -1.515432         0.216161
 H        -0.296136         0.239340        -1.310776
 H        -0.647130        -0.279662         0.415959
 H        -0.093882         1.376338         0.075535
 H         2.392819         0.017711        -2.262670
 H         2.202190         1.705356        -1.583188
 H         4.628974         1.211552        -1.111052
 H         3.955010         1.134152         1.609998
 H         5.066300        -0.959613         0.387682
 H         1.257061        -2.334977        -0.405972
 H         1.655574        -1.740642         1.236613
