19
Iteration:   923
 C         0.074759         0.304293        -0.262937
 C         1.572836         0.121287        -0.078103
 C         2.524597         1.359467        -0.248153
 C         3.830283         0.728251         0.385607
 C         3.262382        -0.476420         1.210113
 O         1.820814        -0.377920         1.224326
 C         4.026495        -0.776815        -0.065615
 O         3.391950        -1.172737        -1.305387
 C         2.004394        -0.947792        -1.074778
 H        -0.147760         1.342381        -0.612878
 H        -0.441039        -0.444565        -1.065658
 H        -0.368988         0.184293         0.770464
 H         2.724107         1.667064        -1.274391
 H         2.108922         2.080811         0.486140
 H         4.666139         1.271994         0.786658
 H         3.719735        -0.708897         2.214692
 H         5.006352        -1.306439         0.071900
 H         1.597777        -0.842286        -2.100428
 H         1.597755        -1.830058        -0.525342
