19
Iteration:   678
 C         0.047599         0.215465        -0.172961
 C         1.590218         0.196570        -0.150276
 C         2.488044         1.510956         0.058463
 C         3.717384         0.683269         0.341039
 C         3.270154        -0.500805         1.189811
 O         1.861075        -0.593611         1.120397
 C         4.036838        -0.729005        -0.087407
 O         3.304112        -1.393280        -1.067150
 C         2.134622        -0.600875        -1.455678
 H        -0.481817         0.898731        -0.896755
 H        -0.211908        -0.738237        -0.399639
 H        -0.184739         0.477774         0.933140
 H         2.590763         2.117713        -0.811709
 H         2.253032         2.125040         0.878871
 H         4.635000         1.155303         0.623577
 H         3.685874        -0.891360         2.141459
 H         5.091155        -1.135322        -0.055481
 H         2.541883         0.171861        -2.191773
 H         1.428718        -1.363503        -1.896733
