19
Iteration:  3127charge 0 multiplicity 1
 C        -0.042744         0.344960        -0.200063
 C         1.447454         0.042998        -0.183486
 C         2.464176         0.432742        -1.309060
 C         3.828524         0.516165        -0.698453
 C         3.467223         0.545928         0.850188
 O         2.023787         0.843866         0.932908
 C         4.069663        -0.678851         0.140055
 O         3.291545        -1.830478        -0.121559
 C         1.941783        -1.522320         0.187592
 H        -0.348394         0.661734        -1.154269
 H        -0.593579        -0.463569         0.134803
 H        -0.082921         1.133447         0.608673
 H         2.283274        -0.180113        -2.233683
 H         2.028583         1.466487        -1.563238
 H         4.703407         0.929256        -1.169243
 H         4.068752         1.080865         1.508029
 H         5.142544        -0.907517         0.391805
 H         1.319280        -2.122249        -0.387534
 H         1.739926        -1.622475         1.312004
