19
Iteration:   740charge 0 multiplicity 1
 C         0.149715         0.554929        -0.144155
 C         1.567212         0.039432        -0.108601
 C         2.491055         1.257871        -0.182904
 C         3.710659         0.678508         0.549957
 C         3.208703        -0.513426         1.254391
 O         1.813062        -0.667793         1.109799
 C         4.084619        -0.630242        -0.095702
 O         3.481921        -0.991687        -1.349689
 C         1.976815        -0.985715        -1.166968
 H         0.039881         1.402603         0.503159
 H        -0.124351         0.949971        -1.234379
 H        -0.574107        -0.239178         0.109604
 H         2.717695         1.306006        -1.311387
 H         1.977475         2.177107         0.181825
 H         4.516454         1.297916         0.930500
 H         3.567801        -1.075742         2.056613
 H         5.175262        -0.956875         0.043304
 H         1.499618        -0.852124        -2.153376
 H         1.636821        -1.929554        -0.712058
