19
Iteration:  1959charge 0 multiplicity 1
 C        -0.004400         0.416740        -0.248865
 C         1.517213         0.027514        -0.131654
 C         2.506606         1.017015        -0.807185
 C         3.818472         0.816745        -0.045944
 C         3.431978         0.059504         1.181875
 O         1.985621        -0.092972         1.246971
 C         4.075018        -0.656185        -0.009409
 O         3.282423        -1.517048        -0.785669
 C         1.876042        -1.312237        -0.645461
 H        -0.460673        -0.111050        -1.106970
 H        -0.586993         0.309503         0.654279
 H        -0.080422         1.452445        -0.541002
 H         2.701320         0.730305        -1.833016
 H         2.178610         2.141593        -0.735878
 H         4.668468         1.529451        -0.077959
 H         3.947772         0.299697         2.187801
 H         5.091361        -1.036992         0.083888
 H         1.579583        -1.665752        -1.678760
 H         1.438026        -1.969755         0.014904
