19
Iteration:  1470charge 0 multiplicity 1
 C         0.030560         0.330682        -0.064306
 C         1.547470         0.043059        -0.203409
 C         2.529416         1.175702        -0.626499
 C         3.782015         0.803826         0.096558
 C         3.363050        -0.036466         1.229921
 O         1.987455        -0.203893         1.171909
 C         4.098212        -0.666717         0.026176
 O         3.244693        -1.585698        -0.662580
 C         1.935457        -1.085243        -1.225402
 H        -0.337751         1.087389         0.672670
 H        -0.354825         0.656420        -1.117103
 H        -0.532213        -0.603556         0.266046
 H         2.633527         1.376860        -1.837068
 H         2.174449         2.087286        -0.140452
 H         4.707989         1.435458         0.193124
 H         3.787786        -0.021284         2.232257
 H         5.042573        -1.117755         0.088953
 H         1.911946        -0.734228        -2.261386
 H         1.235834        -1.969297        -1.173341
