19
Iteration:  2555charge 0 multiplicity 1
 C         0.050652         0.371308        -0.269123
 C         1.548385         0.028566        -0.121112
 C         2.443629         0.725976        -1.166475
 C         3.781602         0.705553        -0.400973
 C         3.466555         0.420805         1.051760
 O         2.055446         0.404081         1.246196
 C         4.085100        -0.685914         0.103505
 O         3.261873        -1.687240        -0.484567
 C         1.816853        -1.486233        -0.273356
 H        -0.506866         0.057915         0.669745
 H        -0.268493         1.412779        -0.644064
 H        -0.271747        -0.318061        -0.986045
 H         2.473050         0.078320        -2.134512
 H         2.248376         1.764598        -1.366119
 H         4.572258         1.373979        -0.710679
 H         3.888320         0.713894         1.995741
 H         5.065894        -1.178465         0.224394
 H         1.317680        -1.895911        -1.103723
 H         1.511883        -2.073839         0.653931
