19
Iteration:   260
 C         0.033837         0.438409        -0.152625
 C         1.573577         0.122970        -0.148872
 C         2.405862         1.234547         0.373556
 C         3.683932         0.595293         0.590448
 C         3.286660        -0.724402         1.146831
 O         1.905764        -0.857154         0.913198
 C         4.027588        -0.654320        -0.110078
 O         3.369819        -1.062721        -1.267438
 C         2.205983        -0.399827        -1.514287
 H        -0.281777         0.841455        -1.186692
 H        -0.573939        -0.437339         0.229475
 H        -0.056484         1.235122         0.513124
 H         2.315365         2.116952        -0.419576
 H         1.976313         1.652916         1.333670
 H         4.483718         1.261248         0.970218
 H         3.603753        -1.218806         2.052821
 H         5.092322        -1.058427        -0.179111
 H         2.389914         0.431754        -2.184631
 H         1.449784        -1.129440        -1.841201
