19
Iteration:  2845
 C         0.053653         0.318307        -0.188950
 C         1.560371        -0.070680        -0.224075
 C         2.346522         0.849205        -1.218137
 C         3.778775         0.643746        -0.680768
 C         3.545878         0.552040         0.872409
 O         2.154389         0.444801         1.057947
 C         3.999569        -0.644357         0.125136
 O         3.222059        -1.820405         0.147277
 C         1.852015        -1.546576        -0.285666
 H        -0.729680        -0.334170        -0.608305
 H        -0.232688         0.515546         0.821697
 H        -0.194102         1.319599        -0.760391
 H         2.277153         0.553622        -2.402456
 H         2.049592         1.902845        -1.169854
 H         4.648053         1.118702        -1.169129
 H         4.133643         1.035918         1.722706
 H         5.021223        -0.911755         0.142801
 H         1.686716        -2.051701        -1.273929
 H         1.099108        -2.003646         0.501525
