19
Iteration:  1826charge 0 multiplicity 1
 C        -0.033703         0.424684        -0.065386
 C         1.504315         0.000007        -0.258837
 C         2.484524         1.148144        -0.687131
 C         3.829564         0.805398        -0.114800
 C         3.420108         0.041141         1.165502
 O         1.965269        -0.101399         1.149404
 C         4.084471        -0.710341         0.007167
 O         3.257498        -1.722995        -0.474718
 C         1.974312        -1.155450        -1.035477
 H         0.048224         1.054728         0.731850
 H        -0.616163         0.781861        -0.932099
 H        -0.277430        -0.588526         0.306662
 H         2.361699         1.351988        -1.697820
 H         2.012918         2.162352        -0.314063
 H         4.596334         1.563928        -0.202994
 H         3.705518         0.225175         2.142988
 H         5.130001        -1.063091         0.147745
 H         2.384217        -0.641343        -2.055346
 H         1.342064        -1.963145        -1.182621
