19
Iteration:   181
 C         0.071922         0.450606        -0.181927
 C         1.538077         0.034967        -0.117230
 C         2.503752         1.198503         0.278277
 C         3.839019         0.493704         0.790581
 C         3.163033        -0.870433         1.144820
 O         1.737595        -0.839047         1.014885
 C         4.007016        -0.705461        -0.153323
 O         3.509867        -0.508973        -1.464898
 C         2.106672        -0.582602        -1.440814
 H        -0.369436         0.348118         0.852990
 H         0.156664         1.446093        -0.585862
 H        -0.502879        -0.103839        -0.885994
 H         2.684337         1.807490        -0.685328
 H         2.047662         1.734281         1.134650
 H         4.680210         0.943644         1.315993
 H         3.566471        -1.473944         1.980408
 H         4.922299        -1.162580        -0.198552
 H         1.665127        -0.199855        -2.344047
 H         1.851267        -1.650383        -1.389487
