19
Iteration:  4116
 C        -0.009793         0.114039        -0.205043
 C         1.576498         0.094127        -0.114377
 C         2.269058        -0.105214        -1.446199
 C         3.733976         0.139666        -1.031838
 C         3.612966         0.833355         0.380922
 O         2.272746         1.148558         0.695130
 C         4.044673        -0.658607         0.157477
 O         3.177561        -1.699556         0.472457
 C         1.832822        -1.150908         0.637688
 H        -0.472344        -0.598062         0.459376
 H        -0.419677         1.084893         0.186485
 H        -0.481019         0.045260        -1.302585
 H         2.107156        -1.184159        -1.754686
 H         1.988931         0.477799        -2.272751
 H         4.591886         0.369464        -1.674769
 H         4.231420         1.696327         0.612590
 H         5.098852        -0.978734         0.396846
 H         1.136894        -1.856217         0.298367
 H         1.717089        -1.048235         1.707249
