19
Iteration:  3465charge 0 multiplicity 1
 C        -0.025894         0.416154        -0.130160
 C         1.513168        -0.033220        -0.153687
 C         2.332179         0.349183        -1.428958
 C         3.771571         0.372820        -0.963098
 C         3.522425         0.682744         0.572597
 O         2.098070         0.858183         0.776908
 C         4.106469        -0.696080         0.198742
 O         3.324573        -1.824623         0.483777
 C         1.851492        -1.484168         0.206483
 H        -0.339345         0.521262         0.907968
 H        -0.095252         1.393003        -0.606661
 H        -0.666894        -0.341325        -0.704987
 H         2.242335        -0.191765        -2.319082
 H         2.131132         1.474329        -1.752712
 H         4.622822         0.794552        -1.512124
 H         4.004431         1.431007         1.087729
 H         5.216137        -0.801227         0.339801
 H         1.477240        -2.125934        -0.527102
 H         1.212115        -1.614199         1.179610
