19
Iteration:   368
 C         0.089587         0.566246        -0.134565
 C         1.517045         0.051739        -0.145803
 C         2.512383         1.169857         0.048858
 C         3.758685         0.588447         0.693541
 C         3.205719        -0.770179         1.136378
 O         1.769844        -0.724841         1.057878
 C         4.091708        -0.627829        -0.123280
 O         3.475115        -0.682235        -1.366928
 C         2.077882        -0.887255        -1.345884
 H        -0.663129        -0.311838         0.036060
 H        -0.098990         1.322339         0.722933
 H        -0.200897         1.009553        -1.044655
 H         2.759467         1.714844        -0.909834
 H         2.064009         1.821531         0.767014
 H         4.402878         1.203523         1.300621
 H         3.580279        -1.307173         1.960466
 H         5.105907        -1.150660        -0.098989
 H         1.787024        -0.635921        -2.400585
 H         1.724663        -1.894653        -1.098188
