19
Iteration:   595charge 0 multiplicity 1
 C         0.073821         0.508113        -0.130623
 C         1.591068         0.072495        -0.173674
 C         2.508652         1.287034        -0.059690
 C         3.724635         0.695656         0.600927
 C         3.227612        -0.615681         1.236495
 O         1.825137        -0.644346         1.124657
 C         4.056593        -0.671873        -0.065790
 O         3.459690        -1.016435        -1.363899
 C         2.043968        -0.890510        -1.360846
 H        -0.544051        -0.418867        -0.214194
 H        -0.032204         1.078918         0.830169
 H        -0.313945         1.089250        -0.969999
 H         2.668752         1.786102        -1.027857
 H         2.007182         2.017800         0.687583
 H         4.536249         1.233686         1.066921
 H         3.609997        -0.890327         2.274158
 H         5.044336        -1.052922        -0.066608
 H         1.654284        -0.704219        -2.316087
 H         1.515474        -1.846545        -1.154890
