19
Iteration:  3731
 C         0.025446         0.244065        -0.244778
 C         1.527247        -0.068803        -0.172509
 C         2.341054         0.177345        -1.539265
 C         3.737786         0.270207        -0.990128
 C         3.579110         0.722475         0.662293
 O         2.176245         1.054541         0.725894
 C         3.970175        -0.639134         0.182960
 O         3.202651        -1.816962         0.270073
 C         1.922009        -1.294347         0.643437
 H        -0.299102         0.920158         0.615760
 H        -0.346383         0.661174        -1.211063
 H        -0.496617        -0.687281        -0.064151
 H         2.199910        -0.659724        -2.342467
 H         2.010118         1.235139        -1.895848
 H         4.621510         0.638442        -1.522185
 H         4.169938         1.359866         1.190280
 H         5.063379        -0.976326         0.256766
 H         1.143844        -1.995997         0.750284
 H         2.058179        -0.863127         1.656075
