19
Iteration:  4083
 C         0.086034         0.327051        -0.250848
 C         1.574046        -0.051408        -0.061503
 C         2.220368         0.053741        -1.497836
 C         3.679541         0.182042        -1.126155
 C         3.569050         0.839129         0.294169
 O         2.265795         0.947155         0.591117
 C         4.014295        -0.605512         0.168947
 O         3.268897        -1.669598         0.705479
 C         1.802796        -1.385677         0.709627
 H        -0.549667        -0.201181         0.465010
 H         0.030362         1.402489         0.052331
 H        -0.389560         0.160632        -1.340995
 H         1.947608        -0.728312        -2.255063
 H         1.874946         1.023665        -1.779666
 H         4.634948         0.430493        -1.634560
 H         4.027896         1.766003         0.491262
 H         5.121549        -0.718970         0.417427
 H         1.348524        -2.163843         0.173868
 H         1.472373        -1.348354         1.713511
