19
Iteration:  3607
 C         0.025136         0.167474        -0.175277
 C         1.586696         0.073181        -0.107681
 C         2.315552         0.270451        -1.486808
 C         3.738058         0.238968        -0.996781
 C         3.597825         0.766538         0.392826
 O         2.227136         0.941669         0.900016
 C         4.044886        -0.661361         0.196681
 O         3.172515        -1.693660         0.561681
 C         1.799244        -1.411300         0.278794
 H        -0.357646         0.261221        -1.155646
 H        -0.543743        -0.661621         0.280771
 H        -0.221916         1.116200         0.335423
 H         2.252255        -0.514351        -2.197185
 H         2.006265         1.282037        -2.026598
 H         4.540977         0.640899        -1.586575
 H         4.286792         1.558534         0.777767
 H         5.076735        -0.953558         0.351589
 H         1.509260        -1.941831        -0.559184
 H         1.191876        -1.703781         1.066545
