19
Iteration:  4253
 C         0.088444         0.328254        -0.070249
 C         1.542964         0.032630        -0.136427
 C         2.235658         0.125136        -1.560459
 C         3.676798         0.031135        -1.048234
 C         3.557023         0.797739         0.283536
 O         2.203217         1.041387         0.622369
 C         4.002800        -0.584761         0.304286
 O         3.285797        -1.632824         0.784620
 C         1.902291        -1.503656         0.374421
 H         0.020099         1.241874         0.754887
 H        -0.359191         0.770105        -1.037360
 H        -0.561787        -0.542113         0.068934
 H         1.961831        -0.671998        -2.223488
 H         1.936216         1.155691        -1.988599
 H         4.607439         0.116995        -1.683770
 H         4.011260         1.722595         0.463872
 H         5.093212        -0.813074         0.558241
 H         1.536939        -2.212768        -0.467627
 H         1.284867        -1.640653         1.172549
