19
Iteration:  2999
 C        -0.025650         0.257723        -0.187847
 C         1.500350         0.059212        -0.153079
 C         2.366173         0.628608        -1.371587
 C         3.752914         0.581083        -0.664818
 C         3.604265         0.557252         0.805009
 O         2.192417         0.565086         1.045888
 C         4.098606        -0.680864         0.137990
 O         3.198856        -1.741377         0.209183
 C         1.819013        -1.427164        -0.197534
 H        -0.428154         0.217140         0.811361
 H        -0.397668         1.232927        -0.637501
 H        -0.462337        -0.707779        -0.620191
 H         2.388923        -0.137650        -2.221303
 H         2.007928         1.600643        -1.560264
 H         4.518732         1.131977        -1.216320
 H         4.121587         1.171147         1.483089
 H         5.135919        -1.104582         0.165370
 H         1.682003        -1.895123        -1.274963
 H         1.208318        -2.028045         0.463263
