19
Iteration:  4703
 C        -0.011749         0.269472        -0.199091
 C         1.488483         0.032219        -0.118098
 C         2.263597        -0.201128        -1.470475
 C         3.695649         0.026792        -1.031733
 C         3.626969         0.831416         0.205634
 O         2.256913         1.111200         0.457258
 C         4.085330        -0.568440         0.211969
 O         3.234798        -1.610203         0.691720
 C         1.850538        -1.232943         0.807225
 H        -0.584900        -0.348712         0.513146
 H        -0.356901         1.215796         0.089056
 H        -0.327294        -0.047771        -1.253539
 H         2.121345        -1.193444        -1.951079
 H         1.957050         0.581749        -2.248767
 H         4.357000         0.273775        -1.808995
 H         4.321059         1.710238         0.411293
 H         5.110695        -0.605011         0.483536
 H         1.248718        -2.093818         0.519689
 H         1.726640        -1.010138         1.877785
