19
Iteration:  4062charge 0 multiplicity 1
 C         0.118425         0.431897        -0.129171
 C         1.532894        -0.126651        -0.255308
 C         2.208141         0.004625        -1.543329
 C         3.635053         0.151347        -1.094427
 C         3.579323         0.840729         0.264971
 O         2.198159         0.915095         0.729069
 C         4.072202        -0.591544         0.208565
 O         3.285769        -1.549395         0.787460
 C         1.809680        -1.422806         0.515365
 H        -0.377107         0.192503         0.823338
 H         0.094119         1.571416        -0.186592
 H        -0.614600        -0.005185        -1.025873
 H         2.291732        -0.928945        -2.188812
 H         2.072808         0.853171        -2.136518
 H         4.421189         0.289736        -1.860952
 H         4.233135         1.565655         0.675207
 H         5.196711        -0.780450         0.358740
 H         1.440173        -2.380218         0.105511
 H         1.452359        -1.298963         1.462206
