19
Iteration:  1434
 C         0.043812         0.333726        -0.130219
 C         1.608399         0.139525        -0.189159
 C         2.466726         1.402041        -0.514782
 C         3.747012         0.767978        -0.033918
 C         3.342595        -0.062927         1.150611
 O         1.962241        -0.282125         1.171713
 C         4.020613        -0.722529        -0.018730
 O         3.267569        -1.711496        -0.625343
 C         2.032564        -1.069394        -1.125447
 H        -0.152238         1.341636        -0.289316
 H        -0.450867        -0.287896        -0.897467
 H        -0.300281        -0.132866         0.810488
 H         2.250545         1.847580        -1.524362
 H         2.081041         2.142546         0.220185
 H         4.635011         1.342879        -0.004703
 H         3.772249        -0.016241         2.135043
 H         5.130488        -0.910286         0.189435
 H         2.239532        -0.663940        -2.156233
 H         1.392375        -1.891621        -1.019088
