19
Iteration:  2572
 C         0.147161         0.303433        -0.210092
 C         1.611595        -0.012518        -0.133467
 C         2.449653         0.755731        -1.137783
 C         3.810825         0.708161        -0.513358
 C         3.445557         0.406564         1.024315
 O         2.056546         0.343647         1.203431
 C         3.958596        -0.608988         0.182405
 O         3.211768        -1.715055        -0.369084
 C         1.836873        -1.444648        -0.338744
 H        -0.520069        -0.202925         0.479385
 H         0.073929         1.319797         0.068297
 H        -0.384833         0.181183        -1.244005
 H         2.382114         0.284354        -2.070726
 H         1.969469         1.756269        -1.456670
 H         4.667291         1.268644        -0.904296
 H         4.116202         0.886571         1.756554
 H         5.019017        -0.876108         0.394143
 H         1.407665        -1.664417        -1.422013
 H         1.273319        -1.947119         0.450842
