19
Iteration:    91charge 0 multiplicity 1
 C        -0.001545         0.361713        -0.085570
 C         1.551507         0.107509        -0.095797
 C         2.530692         1.344708         0.399078
 C         3.675762         0.523325         0.790690
 C         3.185954        -0.903414         1.112058
 O         1.840560        -0.944628         0.796935
 C         4.001771        -0.665922        -0.088620
 O         3.518653        -0.871850        -1.446945
 C         2.169972        -0.267281        -1.525695
 H        -0.478867         0.215502        -0.950169
 H        -0.349183        -0.392097         0.610695
 H        -0.330151         1.365038         0.301422
 H         2.681324         2.069477        -0.364458
 H         2.077635         1.826988         1.282529
 H         4.518318         0.984275         1.365696
 H         3.334810        -1.544067         1.987513
 H         5.112976        -0.994279        -0.030947
 H         2.203982         0.728655        -1.913476
 H         1.531873        -0.870325        -2.132943
