19
Iteration:  4823
 C         0.026801         0.319251        -0.165444
 C         1.514180        -0.055164        -0.175440
 C         2.189192        -0.089020        -1.589070
 C         3.664985         0.051428        -1.134497
 C         3.657673         0.816084         0.171629
 O         2.245582         0.981642         0.601932
 C         4.095545        -0.614016         0.181090
 O         3.235630        -1.425536         0.989328
 C         1.845418        -1.321480         0.611410
 H        -0.005669         1.017098         0.716092
 H        -0.395798         0.909245        -1.018489
 H        -0.611103        -0.623462         0.046597
 H         2.025919        -1.035693        -2.098502
 H         1.961802         0.693357        -2.340948
 H         4.530559         0.304621        -1.728722
 H         4.308752         1.657435         0.338723
 H         5.080985        -1.087005         0.218972
 H         1.642298        -2.325508        -0.046696
 H         1.262163        -1.302741         1.551189
