19
Iteration:  1316charge 0 multiplicity 1
 C         0.072346         0.387708        -0.249978
 C         1.525165         0.105392        -0.091733
 C         2.516248         1.216492        -0.594102
 C         3.798197         0.809267         0.126857
 C         3.318181        -0.249909         1.223440
 O         1.905013        -0.256951         1.269830
 C         4.054372        -0.730522         0.053487
 O         3.357971        -1.359950        -1.052624
 C         1.933994        -1.205855        -0.925699
 H        -0.468571        -0.229161        -0.922762
 H        -0.389723         0.405682         0.788280
 H        -0.211206         1.436835        -0.467009
 H         2.833674         1.210447        -1.670704
 H         2.218696         2.159522        -0.315267
 H         4.560566         1.566686         0.253157
 H         3.746616        -0.132329         2.251463
 H         5.139134        -1.120866         0.091081
 H         1.588274        -1.074791        -1.906084
 H         1.568828        -1.998152        -0.226337
