19
Iteration:  4991charge 0 multiplicity 1
 C         0.008682         0.255769        -0.108146
 C         1.536139        -0.065623        -0.119825
 C         2.345075        -0.072958        -1.527359
 C         3.778142         0.067030        -1.086910
 C         3.601504         0.818617         0.235451
 O         2.220257         1.086917         0.522265
 C         4.061205        -0.628532         0.215733
 O         3.228883        -1.602495         0.687577
 C         1.738915        -1.254929         0.679855
 H        -0.521516         0.684976        -0.932084
 H        -0.595536        -0.558528         0.435315
 H        -0.092482         1.022461         0.567476
 H         2.111296        -0.900056        -2.239719
 H         2.065853         0.796367        -2.075683
 H         4.532443         0.504355        -1.671006
 H         4.039203         1.810971         0.505615
 H         5.012958        -0.855939         0.568738
 H         1.329588        -2.177586         0.212476
 H         1.523165        -1.128272         1.684713
