19
Iteration:  1495
 C         0.098858         0.350296        -0.244417
 C         1.626882         0.121657        -0.173428
 C         2.495140         1.307441        -0.574399
 C         3.780082         0.835662         0.049443
 C         3.324662        -0.103268         1.202076
 O         1.951921        -0.222171         1.179547
 C         4.006200        -0.697452         0.038943
 O         3.355093        -1.578894        -0.865352
 C         1.894286        -1.196012        -0.903115
 H        -0.244841         0.696888         0.852820
 H        -0.284087         1.141240        -0.916326
 H        -0.483124        -0.603034        -0.355695
 H         2.334707         1.349461        -1.713108
 H         2.073483         2.271220        -0.147893
 H         4.727625         1.374922         0.137150
 H         3.778902        -0.191810         2.221074
 H         5.050440        -1.093510         0.158077
 H         1.531327        -1.211715        -1.930554
 H         1.312294        -1.991534        -0.215608
