19
Iteration:  1778charge 0 multiplicity 1
 C         0.009775         0.289638        -0.270919
 C         1.552967         0.083284        -0.182567
 C         2.532639         1.172331        -0.618257
 C         3.866387         0.781260        -0.018956
 C         3.402846         0.020322         1.169232
 O         1.958555        -0.044545         1.246754
 C         4.072996        -0.711571         0.009430
 O         3.223336        -1.588858        -0.784344
 C         1.897064        -1.238334        -0.826616
 H        -0.183248         1.346110        -0.693076
 H        -0.321890        -0.447288        -0.974664
 H        -0.363734         0.111870         0.747147
 H         2.475633         1.426305        -1.758508
 H         2.195469         2.145249        -0.220710
 H         4.666203         1.540015        -0.060042
 H         4.068811        -0.000281         2.080680
 H         5.051485        -1.133522         0.205779
 H         1.578237        -1.320658        -1.884313
 H         1.322219        -1.948889        -0.111184
