19
Iteration:  2784
 C         0.051506         0.315980        -0.148267
 C         1.552413        -0.027104        -0.182485
 C         2.418865         0.791721        -1.223144
 C         3.823943         0.672721        -0.570322
 C         3.451309         0.515499         0.888028
 O         2.061342         0.535402         1.014049
 C         4.067988        -0.663576         0.120517
 O         3.250253        -1.886604        -0.111162
 C         1.823787        -1.526588        -0.181771
 H        -0.262588        -0.093237         0.838509
 H         0.013908         1.477807        -0.231267
 H        -0.443309        -0.179659        -0.948741
 H         2.323822         0.471667        -2.216991
 H         1.977377         1.855685        -1.140894
 H         4.653163         1.392168        -0.827746
 H         4.013420         1.089549         1.653801
 H         5.100406        -1.024447         0.401681
 H         1.486874        -1.999539        -1.160672
 H         1.293464        -1.957935         0.630207
