19
Iteration:  2474charge 0 multiplicity 1
 C         0.010569         0.330728        -0.227886
 C         1.508663         0.043277        -0.168499
 C         2.459668         0.799065        -1.055379
 C         3.810980         0.760783        -0.431954
 C         3.530915         0.283100         1.056951
 O         2.070562         0.341480         1.230540
 C         4.045521        -0.663602         0.058353
 O         3.251077        -1.700851        -0.257765
 C         1.824331        -1.435746        -0.521126
 H        -0.354080         1.247540        -0.613515
 H        -0.470075        -0.415836        -0.804742
 H        -0.366642         0.162123         0.830507
 H         2.498170         0.350294        -2.006083
 H         2.215881         1.943508        -1.262146
 H         4.599565         1.457267        -0.738441
 H         3.996707         0.744851         1.943472
 H         5.053719        -1.090082         0.119572
 H         1.556482        -1.575645        -1.702892
 H         1.257438        -2.126442         0.028613
