19
Iteration:    16
 C         0.008479         0.471164        -0.152385
 C         1.505417         0.086034        -0.089378
 C         2.399051         1.176526         0.482882
 C         3.714790         0.447562         0.779542
 C         3.246043        -0.975313         0.977233
 O         1.800303        -0.902094         0.912678
 C         4.114987        -0.632861        -0.177475
 O         3.563623        -0.763279        -1.457434
 C         2.155764        -0.260501        -1.444288
 H        -0.547223         0.192454         0.700366
 H        -0.123072         1.558479        -0.319298
 H        -0.512391        -0.097317        -0.977147
 H         2.416586         2.078167        -0.133652
 H         1.862839         1.341473         1.452841
 H         4.414108         0.844373         1.567747
 H         3.522609        -1.566560         1.871921
 H         5.233776        -0.942018        -0.186865
 H         2.099948         0.724647        -1.913248
 H         1.498267        -0.902516        -2.028295
