19
Iteration:    68charge 0 multiplicity 1
 C         0.041168         0.316315        -0.176969
 C         1.537292         0.222664        -0.137059
 C         2.455580         1.294934         0.485668
 C         3.739293         0.478262         0.834727
 C         3.291737        -0.896263         1.068496
 O         1.843276        -0.974837         0.734606
 C         4.152165        -0.623207        -0.154177
 O         3.312579        -0.915500        -1.264279
 C         2.157404        -0.165007        -1.515261
 H        -0.351192        -0.458836        -0.651311
 H        -0.371694         0.306851         0.845839
 H        -0.357336         1.234501        -0.705797
 H         2.677437         1.989812        -0.262407
 H         2.009001         1.819090         1.340578
 H         4.484567         1.075640         1.441899
 H         3.455358        -1.661910         1.871681
 H         5.212865        -1.099229        -0.372167
 H         2.197725         0.703485        -2.174271
 H         1.469513        -0.861920        -1.888169
