19
Iteration:  2054
 C         0.082366         0.313580        -0.159762
 C         1.548939         0.058728        -0.215825
 C         2.450612         1.112370        -0.854994
 C         3.793856         0.829664        -0.193359
 C         3.484130         0.178918         1.208196
 O         2.073227        -0.031759         1.233375
 C         4.035915        -0.661886         0.034957
 O         3.152367        -1.744195        -0.389556
 C         1.886872        -1.260661        -0.981532
 H        -0.098707         1.340541         0.146610
 H        -0.432058        -0.040147        -1.114244
 H        -0.379898        -0.393958         0.639185
 H         2.437753         1.148065        -1.951333
 H         2.198755         2.105183        -0.487858
 H         4.632423         1.548085        -0.241383
 H         3.969654         0.618520         2.154958
 H         5.063468        -1.038300         0.039772
 H         1.817362        -1.130265        -2.097498
 H         1.206158        -2.246840        -0.762883
