19
Iteration:  3251
 C         0.018035         0.213188        -0.116655
 C         1.598218         0.072228        -0.199372
 C         2.352636         0.470662        -1.435312
 C         3.735004         0.473902        -0.831626
 C         3.596780         0.710223         0.709483
 O         2.220932         0.700083         0.952307
 C         4.059967        -0.643713         0.149576
 O         3.137630        -1.711418         0.411714
 C         1.789974        -1.511882        -0.070879
 H        -0.243424        -0.409328         0.751757
 H        -0.310485         1.304554        -0.079029
 H        -0.379971        -0.268389        -0.983078
 H         2.229331        -0.432492        -2.233503
 H         2.173843         1.347305        -2.015172
 H         4.630136         0.974995        -1.259192
 H         4.225216         1.387922         1.285930
 H         5.066701        -1.044177         0.331523
 H         1.507615        -1.995915        -0.934642
 H         0.979152        -1.723370         0.739865
