19
Iteration:  2001
 C         0.003249         0.307174        -0.147940
 C         1.541893         0.068981        -0.191135
 C         2.442269         1.179652        -0.678496
 C         3.794212         0.787285        -0.131731
 C         3.436312         0.153342         1.090480
 O         2.027052         0.086488         1.174489
 C         4.018369        -0.754584         0.010345
 O         3.253481        -1.761617        -0.505048
 C         1.976177        -1.299773        -0.926061
 H        -0.304062         0.693632        -1.138582
 H        -0.471941        -0.675184         0.076383
 H        -0.250492         1.048280         0.651951
 H         2.466487         1.173052        -1.716267
 H         2.112818         2.143045        -0.138655
 H         4.704165         1.367159        -0.343457
 H         3.880999         0.398097         2.120885
 H         5.078182        -1.017557        -0.020112
 H         1.851095        -1.107204        -1.966924
 H         1.312232        -2.180026        -0.669547
