19
Iteration:  1151charge 0 multiplicity 1
 C         0.120624         0.393143        -0.334939
 C         1.586716         0.082442        -0.048518
 C         2.586299         1.128913        -0.422212
 C         3.794498         0.735756         0.298043
 C         3.254903        -0.307273         1.256380
 O         1.858267        -0.286939         1.330350
 C         4.021214        -0.719929        -0.094919
 O         3.316604        -1.086035        -1.282323
 C         1.961615        -1.227991        -0.887180
 H         0.156841         1.296257        -0.915461
 H        -0.375102        -0.347820        -0.985021
 H        -0.499508         0.717070         0.509666
 H         2.744096         1.243293        -1.554907
 H         2.133576         2.140273         0.148088
 H         4.570232         1.491638         0.488813
 H         3.785248        -0.511631         2.150453
 H         4.923399        -1.206928         0.050917
 H         1.360325        -1.417760        -1.864811
 H         1.906424        -2.103070        -0.140255
