19
Iteration:  2632charge 0 multiplicity 1
 C         0.111346         0.295474        -0.195923
 C         1.612283         0.036902        -0.147550
 C         2.373273         0.921536        -1.128502
 C         3.759617         0.626299        -0.617598
 C         3.526959         0.497824         0.915931
 O         2.073238         0.325086         1.159529
 C         4.065496        -0.643930         0.124105
 O         3.155490        -1.814046        -0.009213
 C         1.840110        -1.466888        -0.457516
 H        -0.231277        -0.508181        -0.902688
 H        -0.298891         0.006815         0.836698
 H        -0.155681         1.244202        -0.470318
 H         2.162018         0.640083        -2.225955
 H         2.279466         1.931080        -0.888688
 H         4.600647         1.271345        -0.943347
 H         4.064827         1.062567         1.690246
 H         5.038341        -1.011235         0.214815
 H         1.760126        -1.451575        -1.615988
 H         1.069431        -2.213297        -0.126714
