19
Iteration:  3468charge 0 multiplicity 1
 C        -0.000009         0.374397        -0.126065
 C         1.498953        -0.001648        -0.186814
 C         2.326677         0.348995        -1.409214
 C         3.772915         0.372011        -0.957418
 C         3.529862         0.670162         0.559255
 O         2.095719         0.868700         0.773526
 C         4.112793        -0.689503         0.216744
 O         3.316957        -1.825983         0.469695
 C         1.818757        -1.473411         0.235397
 H        -0.260502         0.392868         0.923290
 H        -0.067735         1.494979        -0.534112
 H        -0.614085        -0.305399        -0.759770
 H         2.341310        -0.219169        -2.358922
 H         2.167754         1.413214        -1.676098
 H         4.552652         0.813400        -1.566656
 H         4.036067         1.482430         1.082653
 H         5.206908        -0.779747         0.343543
 H         1.387421        -2.184370        -0.560159
 H         1.349738        -1.637241         1.118788
