19
Iteration:  2424
 C         0.053609         0.387540        -0.114372
 C         1.514648         0.009053        -0.241607
 C         2.377287         1.041473        -0.976316
 C         3.766508         0.657061        -0.458799
 C         3.469824         0.346232         1.005322
 O         2.041281         0.227293         1.095492
 C         4.088148        -0.677064         0.051638
 O         3.220702        -1.782231        -0.098917
 C         1.974639        -1.466127        -0.652529
 H        -0.423169         0.130972        -1.109587
 H        -0.603742        -0.113472         0.696243
 H        -0.041595         1.464516         0.041341
 H         2.334251         1.035535        -2.126104
 H         2.238250         1.978952        -0.566191
 H         4.693918         1.219717        -0.598228
 H         3.839881         0.719358         1.996656
 H         5.190208        -1.010183         0.173636
 H         1.924920        -1.627720        -1.736106
 H         1.137522        -2.147391        -0.197798
