19
Iteration:   653
 C         0.018850         0.290436        -0.226433
 C         1.615430         0.081960        -0.114506
 C         2.451764         1.358975         0.063268
 C         3.723239         0.746779         0.458724
 C         3.346202        -0.465663         1.226279
 O         1.980699        -0.606900         1.014751
 C         4.064371        -0.743219        -0.066213
 O         3.168970        -1.381309        -1.101860
 C         2.122917        -0.532495        -1.404436
 H        -0.296240         0.133243        -1.237845
 H        -0.403906        -0.629097         0.297356
 H        -0.264803         1.210233         0.251476
 H         2.495163         1.970275        -0.883091
 H         2.061371         1.946337         0.867812
 H         4.654408         1.329282         0.511243
 H         3.580820        -0.687077         2.214503
 H         5.102697        -1.161340        -0.139619
 H         2.498631         0.315408        -1.960698
 H         1.476004        -1.125973        -1.914654
