19
Iteration:  2355charge 0 multiplicity 1
 C         0.027691         0.373946        -0.202893
 C         1.506580         0.056686        -0.176257
 C         2.473204         0.945141        -1.031203
 C         3.834525         0.745171        -0.242880
 C         3.390507         0.261536         1.082074
 O         1.995600         0.347649         1.170545
 C         4.057999        -0.737904         0.050432
 O         3.330035        -1.727494        -0.609243
 C         1.890679        -1.507014        -0.400801
 H        -0.521008        -0.316671         0.364125
 H        -0.180094         1.358860         0.157437
 H        -0.395518         0.371754        -1.262235
 H         2.454986         0.648968        -2.001404
 H         2.140126         1.990825        -0.831624
 H         4.578635         1.532017        -0.415796
 H         3.862057         0.423142         2.023181
 H         4.972745        -1.123313         0.371574
 H         1.345666        -2.102057        -1.060913
 H         1.778890        -1.998777         0.596194
