19
Iteration:  3261charge 0 multiplicity 1
 C         0.029182         0.212083        -0.135489
 C         1.553774         0.095884        -0.182326
 C         2.420634         0.463491        -1.445253
 C         3.790659         0.460495        -0.864636
 C         3.555797         0.647762         0.680687
 O         2.173302         0.696295         0.958345
 C         3.992599        -0.626407         0.152959
 O         3.171622        -1.758425         0.392816
 C         1.847916        -1.396641        -0.012015
 H        -0.435270        -0.466712         0.521102
 H        -0.290388         1.216942         0.269529
 H        -0.569580         0.108145        -1.025784
 H         2.271604        -0.480482        -2.142786
 H         1.983455         1.347523        -1.837071
 H         4.650955         0.774723        -1.501698
 H         4.023285         1.416380         1.323767
 H         5.040263        -0.910245         0.237811
 H         1.622315        -2.044676        -0.820110
 H         1.321927        -1.872880         0.918352
