19
Iteration:  1793
 C         0.118377         0.259098        -0.209952
 C         1.607280         0.126308        -0.194789
 C         2.528729         1.270488        -0.737520
 C         3.808394         0.816679        -0.074202
 C         3.410531         0.049189         1.257037
 O         2.024816        -0.154379         1.217639
 C         3.954162        -0.714189         0.079505
 O         3.249277        -1.657202        -0.709333
 C         1.836735        -1.181303        -0.880214
 H        -0.286306         1.203209        -0.234888
 H        -0.450552        -0.359362        -0.953060
 H        -0.259631        -0.123691         0.771195
 H         2.609396         1.164094        -1.768381
 H         2.178639         2.314099        -0.342834
 H         4.777177         1.344548        -0.197816
 H         3.588363         0.229547         2.288281
 H         4.983748        -1.041338         0.031739
 H         1.580171        -0.978038        -2.041460
 H         1.144290        -1.938684        -0.694209
