19
Iteration:  2341
 C         0.067300         0.461019        -0.240815
 C         1.574239         0.037053        -0.135429
 C         2.470063         0.923815        -1.034420
 C         3.772523         0.776410        -0.316711
 C         3.345785         0.158418         1.112072
 O         1.940346         0.320853         1.221167
 C         3.962908        -0.678781         0.111251
 O         3.346832        -1.678710        -0.733581
 C         1.980258        -1.587164        -0.276160
 H        -0.465035         0.157816         0.731757
 H         0.017047         1.561429        -0.234212
 H        -0.326645         0.002994        -1.096799
 H         2.566747         0.578011        -2.106604
 H         2.098262         2.012435        -1.232422
 H         4.711494         1.307694        -0.514272
 H         3.904403         0.288153         2.075129
 H         5.042600        -0.939928         0.306563
 H         1.469034        -1.958925        -1.146386
 H         1.725661        -2.016368         0.643974
