19
Iteration:  1656charge 0 multiplicity 1
 C        -0.007301         0.277616        -0.262715
 C         1.546988         0.119664        -0.218323
 C         2.446779         1.267113        -0.467902
 C         3.801935         0.826341        -0.094651
 C         3.467526         0.007030         1.179259
 O         2.030656        -0.104090         1.198541
 C         4.052364        -0.722184         0.023190
 O         3.159354        -1.710045        -0.557791
 C         1.992905        -1.149753        -1.074570
 H        -0.383449        -0.747560        -0.468847
 H        -0.108911         0.468220         0.818856
 H        -0.414322         1.019000        -0.914070
 H         2.461388         1.538667        -1.612629
 H         2.191666         2.162901         0.047044
 H         4.766571         1.321737        -0.177922
 H         3.969387         0.078298         2.116440
 H         5.112816        -1.110352         0.018356
 H         1.925978        -0.900611        -2.238721
 H         1.238103        -1.970090        -0.978361
