19
Iteration:  1093charge 0 multiplicity 1
 C         0.073861         0.382945        -0.064859
 C         1.579775         0.104072        -0.199558
 C         2.456647         1.382928        -0.364135
 C         3.833119         0.808535         0.213823
 C         3.290313        -0.238796         1.246602
 O         1.912582        -0.476211         1.099813
 C         4.027431        -0.721303         0.035505
 O         3.331159        -1.461454        -0.969813
 C         2.025642        -0.996573        -1.235351
 H        -0.584156        -0.185699        -0.803086
 H        -0.270260         0.250181         0.919076
 H        -0.047447         1.477298        -0.262167
 H         2.450063         1.719959        -1.467459
 H         1.881879         2.218731         0.178835
 H         4.682639         1.397551         0.536518
 H         3.604799        -0.471797         2.325966
 H         5.114541        -1.112017         0.124407
 H         1.945188        -0.717260        -2.297525
 H         1.300798        -1.899642        -1.064024
