19
Iteration:  1447
 C         0.085210         0.326751        -0.079049
 C         1.536356         0.067334        -0.204698
 C         2.419371         1.303938        -0.581514
 C         3.758687         0.803149        -0.046184
 C         3.376179        -0.035494         1.217856
 O         1.967757        -0.311711         1.173630
 C         4.014597        -0.734375         0.088440
 O         3.229605        -1.647436        -0.674300
 C         2.093651        -1.008610        -1.126126
 H        -0.166140         1.377932         0.118917
 H        -0.477658         0.053117        -1.062756
 H        -0.364429        -0.191689         0.834884
 H         2.598793         1.445648        -1.771991
 H         2.212592         2.278803        -0.114419
 H         4.655259         1.432780        -0.095076
 H         3.761659         0.095533         2.194467
 H         5.003632        -1.179540         0.058707
 H         2.314936        -0.578260        -2.134424
 H         1.308198        -1.726570        -1.371134
