19
Iteration:  1573
 C         0.037173         0.359454        -0.152415
 C         1.538745         0.111050        -0.238056
 C         2.593730         1.145457        -0.696705
 C         3.852857         0.788697         0.098309
 C         3.298298        -0.133818         1.242706
 O         1.891004        -0.113928         1.242806
 C         4.037745        -0.661574         0.059799
 O         3.370354        -1.462702        -0.987430
 C         1.894134        -1.246664        -0.833737
 H        -0.347450         0.205025         0.946719
 H        -0.275906         1.383274        -0.378432
 H        -0.483808        -0.285803        -0.897425
 H         2.658383         1.147609        -1.786276
 H         2.142491         2.175364        -0.441354
 H         4.652041         1.473982         0.142167
 H         3.733679        -0.275275         2.195020
 H         5.025257        -1.197296         0.186921
 H         1.565067        -1.373127        -1.842669
 H         1.535073        -2.026939        -0.111533
