19
Iteration:  4566
 C        -0.051549         0.254334        -0.204650
 C         1.498040        -0.075258        -0.168009
 C         2.300929        -0.130061        -1.505258
 C         3.733390         0.151519        -1.080048
 C         3.625532         0.828144         0.249646
 O         2.263357         1.043707         0.511716
 C         4.075754        -0.600983         0.209415
 O         3.223494        -1.616077         0.682079
 C         1.801253        -1.186710         0.842220
 H         0.015695         1.323589        -0.015473
 H        -0.498570         0.061676        -1.266680
 H        -0.616120        -0.361615         0.477770
 H         2.148304        -1.098570        -2.025218
 H         1.852984         0.592688        -2.163400
 H         4.487430         0.276112        -1.804303
 H         4.324134         1.587162         0.743368
 H         5.111975        -0.831158         0.338628
 H         1.241398        -2.107008         0.586102
 H         1.767643        -0.791788         1.790138
