19
Iteration:  2499
 C         0.071753         0.285414        -0.232805
 C         1.570015        -0.008525        -0.113623
 C         2.486812         0.886586        -1.070328
 C         3.814308         0.698318        -0.401931
 C         3.424472         0.408400         1.024459
 O         2.037729         0.394680         1.169690
 C         3.993456        -0.726772         0.137737
 O         3.265479        -1.742653        -0.508324
 C         1.848255        -1.470631        -0.317254
 H        -0.118955         1.294892         0.109463
 H        -0.291226         0.258532        -1.281982
 H        -0.572142        -0.328171         0.362766
 H         2.466506         0.453525        -2.083062
 H         2.301532         1.981148        -1.219235
 H         4.614640         1.414647        -0.602117
 H         3.875112         0.918880         1.917879
 H         5.053544        -1.182224         0.273550
 H         1.207626        -1.830428        -1.158464
 H         1.523555        -1.930131         0.655589
