19
Iteration:  2018
 C        -0.043383         0.276557        -0.095557
 C         1.497967         0.117312        -0.218224
 C         2.464758         1.242211        -0.804665
 C         3.822059         0.724980        -0.309938
 C         3.460340         0.062894         1.156430
 O         1.988308         0.041832         1.226627
 C         4.086894        -0.694095         0.070111
 O         3.238107        -1.770221        -0.401988
 C         1.995022        -1.240316        -0.968471
 H        -0.514458         0.972349        -0.800653
 H        -0.546996        -0.657270        -0.409131
 H        -0.106114         0.517538         1.000475
 H         2.293354         1.484304        -1.955732
 H         2.286197         2.111934        -0.235999
 H         4.615440         1.441121        -0.297883
 H         3.865591         0.288048         2.078615
 H         5.122509        -1.086738         0.257977
 H         2.223023        -0.965124        -2.083752
 H         1.151815        -1.983090        -0.828873
