19
Iteration:  1073
 C         0.054777         0.350856        -0.155547
 C         1.566557         0.127613        -0.198425
 C         2.471315         1.324300        -0.250399
 C         3.717966         0.758480         0.194940
 C         3.354411        -0.264245         1.224481
 O         1.962144        -0.452993         1.103564
 C         4.067161        -0.679051        -0.058848
 O         3.253452        -1.573662        -0.810346
 C         2.038551        -0.851348        -1.278119
 H        -0.514465        -0.538052        -0.286293
 H        -0.199299         0.598585         0.810118
 H        -0.413758         1.163577        -0.703997
 H         2.474879         1.744358        -1.296317
 H         2.114601         2.280604         0.264348
 H         4.561176         1.406510         0.303131
 H         3.844591        -0.346394         2.255785
 H         5.175253        -0.909143        -0.052292
 H         2.280252        -0.188122        -2.170421
 H         1.392824        -1.655848        -1.689940
