19
Iteration:  3038charge 0 multiplicity 1
 C         0.125231         0.333802        -0.083599
 C         1.579164        -0.044956        -0.247375
 C         2.324337         0.701705        -1.340301
 C         3.680528         0.498713        -0.732417
 C         3.526830         0.701953         0.748714
 O         2.126496         0.588284         0.962803
 C         3.981048        -0.642362         0.254317
 O         3.247952        -1.830413         0.248438
 C         1.865953        -1.611140        -0.208229
 H        -0.482730        -0.482932         0.384069
 H         0.050672         1.189458         0.510881
 H        -0.220229         0.708707        -1.023476
 H         2.214963         0.513616        -2.378132
 H         2.217895         1.853355        -1.471579
 H         4.641850         0.780982        -1.245310
 H         4.062835         1.435889         1.407312
 H         5.066011        -0.809483         0.269634
 H         1.722823        -2.015814        -1.133984
 H         1.156466        -2.193645         0.495069
