19
Iteration:  4710charge 0 multiplicity 1
 C         0.040584         0.241284        -0.180508
 C         1.511759         0.006283        -0.180706
 C         2.249968        -0.200153        -1.511135
 C         3.724680         0.076973        -1.081109
 C         3.591504         0.865841         0.223321
 O         2.265699         1.060820         0.486156
 C         4.047175        -0.567945         0.282827
 O         3.190048        -1.615962         0.632454
 C         1.876357        -1.177817         0.886131
 H        -0.352830        -0.582649         0.590455
 H        -0.311958         1.295544         0.016789
 H        -0.386657         0.090240        -1.147271
 H         2.020580        -1.182234        -1.864831
 H         1.973787         0.491542        -2.304202
 H         4.456134         0.234354        -1.940732
 H         4.297787         1.646694         0.339117
 H         5.112620        -0.788069         0.581484
 H         1.209618        -2.135609         0.591377
 H         1.610308        -0.733646         1.854144
