19
Iteration:  1864charge 0 multiplicity 1
 C         0.145037         0.370860        -0.275174
 C         1.603070         0.086425        -0.161492
 C         2.406392         1.235857        -0.677663
 C         3.758242         0.844361        -0.146421
 C         3.455881         0.065452         1.156441
 O         2.002646        -0.161388         1.251981
 C         4.027061        -0.689102         0.024446
 O         3.247407        -1.735789        -0.583445
 C         1.883421        -1.209899        -0.869626
 H        -0.367426         0.132970         0.743519
 H        -0.190799         1.350435        -0.590356
 H        -0.415467        -0.358321        -0.855416
 H         2.288578         1.327130        -1.831447
 H         2.057381         2.106692        -0.232380
 H         4.678180         1.478933        -0.175001
 H         4.037666         0.355173         2.106634
 H         5.043357        -1.018521         0.091116
 H         1.789198        -1.035440        -1.957426
 H         1.148733        -2.091664        -0.727677
