19
Iteration:    99charge 0 multiplicity 1
 C         0.105266         0.368663        -0.055155
 C         1.565619         0.098048        -0.124020
 C         2.432177         1.305632         0.393180
 C         3.688809         0.498276         0.768381
 C         3.147289        -0.847815         1.145121
 O         1.775275        -0.938003         0.825352
 C         4.063610        -0.724955        -0.114100
 O         3.537424        -0.814363        -1.469882
 C         2.153034        -0.261849        -1.498032
 H        -0.382664         0.422833        -1.046130
 H        -0.437188        -0.489447         0.415919
 H        -0.067978         1.243292         0.606803
 H         2.608396         2.009298        -0.388604
 H         2.037218         1.906746         1.206211
 H         4.451168         1.069414         1.354254
 H         3.427814        -1.478056         2.031046
 H         5.099424        -1.203227        -0.122420
 H         2.205402         0.691708        -2.114667
 H         1.602650        -1.030853        -1.983539
