19
Iteration:   298
 C         0.052777         0.352931        -0.223419
 C         1.578057         0.167204        -0.111758
 C         2.501218         1.337863         0.248173
 C         3.734475         0.593961         0.691532
 C         3.261164        -0.707542         1.177680
 O         1.882365        -0.845001         0.972590
 C         4.002431        -0.681398        -0.141338
 O         3.363720        -1.017459        -1.323561
 C         2.107991        -0.447671        -1.423911
 H        -0.287111         1.340869        -0.091077
 H        -0.297022         0.048928        -1.194294
 H        -0.474190        -0.369543         0.537768
 H         2.704236         1.923100        -0.582195
 H         2.219991         1.970470         1.079585
 H         4.565306         1.154518         1.120902
 H         3.761960        -1.201094         2.052937
 H         4.977765        -1.034446        -0.076651
 H         1.959873         0.263129        -2.298502
 H         1.490043        -1.343772        -1.693406
