19
Iteration:  3604
 C        -0.001400         0.173230        -0.162662
 C         1.615281         0.068845        -0.110264
 C         2.327831         0.256297        -1.470336
 C         3.736040         0.254322        -1.007025
 C         3.618386         0.747221         0.423137
 O         2.213157         0.948164         0.902238
 C         4.019034        -0.648056         0.191050
 O         3.175331        -1.682103         0.540664
 C         1.818770        -1.399216         0.276102
 H        -0.367235         0.205968        -1.231961
 H        -0.512941        -0.574376         0.331347
 H        -0.348003         1.160257         0.318430
 H         2.161137        -0.619781        -2.151638
 H         2.087717         1.116489        -2.078196
 H         4.582506         0.636927        -1.592269
 H         4.229471         1.501316         0.759267
 H         5.078813        -1.031557         0.335219
 H         1.503914        -2.057100        -0.650398
 H         1.186352        -1.644515         1.089662
