19
Iteration:  3985
 C        -0.062387         0.209647        -0.203263
 C         1.514460         0.009860        -0.216950
 C         2.300166         0.178500        -1.493275
 C         3.760375         0.204079        -1.041671
 C         3.580640         0.725939         0.318111
 O         2.212185         1.026115         0.620155
 C         4.066631        -0.713346         0.130138
 O         3.272407        -1.713959         0.684753
 C         1.842578        -1.272653         0.684670
 H        -0.235268         1.107758         0.406298
 H        -0.387144         0.333849        -1.211182
 H        -0.660151        -0.565045         0.448718
 H         1.907336        -0.597543        -2.199175
 H         2.211407         1.120973        -1.963487
 H         4.612321         0.480950        -1.736529
 H         4.307823         1.399531         0.617407
 H         5.118383        -0.723024         0.492216
 H         1.193942        -2.220064         0.325131
 H         1.574301        -1.057340         1.690558
