19
Iteration:  1536charge 0 multiplicity 1
 C         0.029280         0.430080        -0.375230
 C         1.494657        -0.023415        -0.084648
 C         2.512833         1.010609        -0.637739
 C         3.932019         0.799518         0.156936
 C         3.353574        -0.137492         1.243492
 O         1.955669        -0.037970         1.353248
 C         4.019788        -0.679066        -0.018980
 O         3.302281        -1.252762        -1.108322
 C         1.896259        -1.374449        -0.753379
 H        -0.641314         0.455030         0.482117
 H         0.101644         1.403339        -0.918949
 H        -0.431098        -0.320578        -1.018863
 H         2.765898         0.947595        -1.775891
 H         2.109485         1.947305        -0.299441
 H         4.780137         1.555542         0.204154
 H         3.810822        -0.374498         2.247663
 H         4.938554        -1.073527         0.291085
 H         1.287710        -1.665560        -1.552958
 H         1.707141        -2.172483        -0.082275
