19
Iteration:  2634charge 0 multiplicity 1
 C         0.108134         0.286585        -0.194293
 C         1.624444         0.017775        -0.151899
 C         2.381539         0.901898        -1.118266
 C         3.751212         0.643056        -0.618464
 C         3.532229         0.505661         0.919417
 O         2.080439         0.335111         1.172376
 C         4.063408        -0.651522         0.121136
 O         3.151124        -1.814722        -0.010977
 C         1.819161        -1.450190        -0.468231
 H        -0.208829        -0.487619        -0.969881
 H        -0.250518        -0.106956         0.794627
 H        -0.145682         1.359835        -0.488827
 H         2.134508         0.610860        -2.264025
 H         2.252440         1.930335        -0.924918
 H         4.635096         1.263193        -0.901643
 H         4.049688         1.141578         1.679227
 H         5.078262        -1.027423         0.191457
 H         1.765737        -1.426210        -1.539116
 H         1.040014        -2.267902        -0.142492
