19
Iteration:   952charge 0 multiplicity 1
 C         0.064114         0.540048        -0.215843
 C         1.516748        -0.009446        -0.097492
 C         2.561905         1.159793        -0.361791
 C         3.783589         0.753964         0.481452
 C         3.294081        -0.453185         1.245633
 O         1.816843        -0.440005         1.173844
 C         4.053085        -0.686514        -0.064101
 O         3.361701        -0.981127        -1.301921
 C         2.031467        -1.174514        -1.036700
 H        -0.017974         1.615231         0.089334
 H        -0.425076         0.402626        -1.152011
 H        -0.623643         0.126907         0.567414
 H         3.020333         1.288259        -1.334280
 H         2.060004         2.059074         0.044852
 H         4.612923         1.459021         0.634416
 H         3.712006        -0.842600         2.120064
 H         5.018863        -1.265741         0.059209
 H         1.664547        -1.215785        -2.059882
 H         1.874085        -2.098493        -0.484827
