19
Iteration:  2177
 C         0.048023         0.368692        -0.210476
 C         1.571352         0.004193        -0.167255
 C         2.454327         1.084694        -0.854025
 C         3.826605         0.763038        -0.232517
 C         3.411608         0.225589         1.096962
 O         1.979959         0.203584         1.171685
 C         4.110129        -0.751975         0.070788
 O         3.298643        -1.694199        -0.557086
 C         1.843018        -1.466608        -0.654792
 H        -0.541414        -0.454910        -0.785099
 H        -0.320879         0.287234         0.843962
 H        -0.268037         1.322207        -0.517818
 H         2.363843         1.209413        -1.864767
 H         2.126697         2.085894        -0.476874
 H         4.521136         1.581509        -0.340328
 H         3.853547         0.408387         2.038324
 H         5.087330        -1.217563         0.259468
 H         1.726372        -1.517122        -1.707111
 H         1.234995        -2.235170        -0.000310
