19
Iteration:  4532charge 0 multiplicity 1
 C         0.087508         0.319681        -0.225259
 C         1.518088        -0.014255        -0.055828
 C         2.301690        -0.280135        -1.434350
 C         3.696272         0.159376        -1.089033
 C         3.553230         0.873514         0.226510
 O         2.206539         1.111308         0.572455
 C         4.036119        -0.546235         0.235234
 O         3.246590        -1.697440         0.502569
 C         1.824883        -1.230046         0.837321
 H         0.106534         1.203571        -0.798351
 H        -0.417837        -0.393890        -0.971591
 H        -0.503502         0.597988         0.676511
 H         2.279398        -1.370848        -1.674852
 H         1.913224         0.307061        -2.197743
 H         4.568024         0.335012        -1.675431
 H         4.221629         1.594948         0.780412
 H         5.100354        -0.737512         0.328275
 H         1.100716        -1.989217         0.438180
 H         1.591208        -1.165106         1.838164
