19
Iteration:  4085
 C         0.067263         0.313713        -0.260918
 C         1.577397        -0.048354        -0.060797
 C         2.211646         0.050097        -1.478930
 C         3.685295         0.190889        -1.122664
 C         3.579704         0.821291         0.293468
 O         2.273204         0.966268         0.587119
 C         4.023196        -0.612229         0.168600
 O         3.276904        -1.669845         0.692165
 C         1.785560        -1.372941         0.719609
 H        -0.560527        -0.227832         0.440019
 H        -0.104389         1.436180         0.078004
 H        -0.376647         0.146638        -1.343211
 H         1.996686        -0.757235        -2.257387
 H         1.918259         1.031227        -1.794008
 H         4.592561         0.408759        -1.616968
 H         4.088278         1.794210         0.512552
 H         5.082785        -0.708782         0.422392
 H         1.301115        -2.199465         0.145601
 H         1.527630        -1.399152         1.729193
