19
Iteration:  4829
 C         0.052940         0.347627        -0.122064
 C         1.518905        -0.037286        -0.196313
 C         2.218556        -0.064316        -1.550230
 C         3.664867        -0.023407        -1.125428
 C         3.665105         0.856324         0.130331
 O         2.221904         0.994444         0.607006
 C         4.063958        -0.632078         0.197556
 O         3.255407        -1.439850         0.967872
 C         1.837299        -1.346379         0.577052
 H        -0.262618         0.957348         0.766383
 H        -0.345105         0.581557        -1.122886
 H        -0.490163        -0.545284         0.054095
 H         1.838652        -1.022980        -2.015078
 H         2.021099         0.734701        -2.277177
 H         4.525052         0.152513        -1.787023
 H         4.258226         1.780824         0.376521
 H         5.149523        -0.782131         0.367607
 H         1.674725        -2.141548        -0.031196
 H         1.160747        -1.405024         1.433258
