19
Iteration:    94charge 0 multiplicity 1
 C         0.048957         0.369896        -0.063517
 C         1.554079         0.094871        -0.103517
 C         2.498448         1.328630         0.403484
 C         3.677132         0.513899         0.781556
 C         3.169886        -0.880420         1.131252
 O         1.817954        -0.939261         0.805193
 C         4.032659        -0.693069        -0.094171
 O         3.531568        -0.852807        -1.464764
 C         2.166173        -0.261230        -1.512413
 H        -0.520223         0.260829        -1.096069
 H        -0.395067        -0.433995         0.531710
 H        -0.229322         1.298150         0.439649
 H         2.656732         2.118509        -0.425440
 H         2.049649         1.898575         1.262937
 H         4.439992         1.012703         1.328993
 H         3.329532        -1.506581         1.975853
 H         5.015332        -1.055467        -0.078561
 H         2.198954         0.747157        -1.941788
 H         1.515096        -1.003813        -2.124955
