19
Iteration:  1933charge 0 multiplicity 1
 C         0.065963         0.442905        -0.167935
 C         1.504777        -0.005807        -0.179789
 C         2.535222         0.996905        -0.824118
 C         3.835648         0.808174        -0.008544
 C         3.320000        -0.003013         1.178041
 O         1.919170         0.151609         1.275290
 C         4.005500        -0.726322         0.050943
 O         3.362005        -1.440976        -0.978201
 C         1.930320        -1.487115        -0.652779
 H        -0.586421        -0.372924        -0.458813
 H        -0.119760         0.632222         0.938198
 H        -0.300811         1.363316        -0.786367
 H         2.739661         0.777056        -1.893103
 H         2.155194         2.013329        -0.552341
 H         4.626050         1.524565         0.049066
 H         3.819785         0.049845         2.083767
 H         5.009454        -1.126847         0.334835
 H         1.561594        -1.901011        -1.532070
 H         1.643880        -2.278337         0.169777
