19
Iteration:   857charge 0 multiplicity 1
 C         0.088626         0.501260        -0.027275
 C         1.569979         0.060817        -0.183196
 C         2.399962         1.425935        -0.146193
 C         3.702820         0.820208         0.250293
 C         3.318939        -0.447023         1.255088
 O         1.894170        -0.713448         0.969819
 C         4.042722        -0.635960        -0.052178
 O         3.321230        -1.516936        -0.912360
 C         2.171251        -0.732638        -1.385610
 H        -0.581360         0.154924        -0.815482
 H        -0.497203        -0.082923         0.797296
 H        -0.093567         1.567090        -0.082944
 H         2.343666         1.854067        -1.135204
 H         2.072601         2.097842         0.688081
 H         4.547680         1.458062         0.486469
 H         3.628599        -0.495639         2.246200
 H         5.160359        -0.840973        -0.022227
 H         2.373140        -0.036751        -2.240401
 H         1.484494        -1.578717        -1.519973
