19
Iteration:  4603charge 0 multiplicity 1
 C         0.098857         0.203195        -0.166774
 C         1.606489        -0.005323        -0.125474
 C         2.192258        -0.089125        -1.502194
 C         3.647453        -0.003149        -1.054919
 C         3.605594         0.897079         0.174175
 O         2.274558         1.155099         0.486299
 C         4.010168        -0.595995         0.284377
 O         3.251736        -1.577593         0.892241
 C         1.834629        -1.332943         0.525966
 H         0.012132         1.125785         0.590710
 H        -0.393389         0.494247        -1.060760
 H        -0.525531        -0.463136         0.435420
 H         1.928244        -1.076995        -1.855761
 H         1.810076         0.819934        -2.165517
 H         4.252822        -0.049815        -2.017070
 H         4.268612         1.658085         0.430906
 H         5.098312        -0.645445         0.537390
 H         1.437411        -2.104223        -0.099927
 H         1.175896        -1.493445         1.413439
