19
Iteration:  4546charge 0 multiplicity 1
 C         0.162600         0.323878        -0.244940
 C         1.593764        -0.043733        -0.123152
 C         2.304073        -0.266439        -1.515889
 C         3.694027         0.211139        -1.084094
 C         3.546604         0.863315         0.304469
 O         2.187548         1.048438         0.601829
 C         4.042286        -0.612161         0.159991
 O         3.135434        -1.646743         0.593199
 C         1.850063        -1.206566         0.817982
 H        -0.064717         1.461017        -0.355730
 H        -0.358195        -0.375504        -0.979584
 H        -0.317378         0.033618         0.664370
 H         2.306053        -1.350977        -1.701731
 H         1.813371         0.278536        -2.398085
 H         4.280525         0.585356        -1.891497
 H         4.189976         1.759862         0.457384
 H         5.022534        -0.862136         0.506073
 H         1.247597        -2.111661         0.840977
 H         1.813080        -0.694319         1.844125
