19
Iteration:  2273charge 0 multiplicity 1
 C         0.140108         0.271115        -0.187642
 C         1.558657         0.090537        -0.214237
 C         2.470068         1.065214        -0.934944
 C         3.777742         0.752498        -0.316314
 C         3.404514         0.255144         1.062307
 O         1.980903         0.232152         1.202604
 C         4.042352        -0.747029         0.096821
 O         3.260427        -1.816260        -0.439168
 C         1.884070        -1.358544        -0.594852
 H        -0.129123         1.287839         0.237456
 H        -0.450824         0.046226        -1.118113
 H        -0.077375        -0.419203         0.594868
 H         2.362738         0.969655        -2.128046
 H         2.149231         2.121696        -0.826753
 H         4.534100         1.489428        -0.511851
 H         3.794765         0.579698         2.005813
 H         5.101551        -1.015323         0.230882
 H         1.610802        -1.246292        -1.701379
 H         1.330992        -2.067031        -0.056927
