19
Iteration:  4640
 C         0.004306         0.331848        -0.107334
 C         1.485478        -0.090396        -0.203023
 C         2.266484        -0.087759        -1.531921
 C         3.699749         0.049202        -1.167522
 C         3.631284         0.858114         0.116376
 O         2.255818         0.877629         0.591619
 C         4.143217        -0.616082         0.145449
 O         3.188396        -1.351495         0.998681
 C         1.809488        -1.346194         0.591326
 H         0.181789         0.619913         0.853740
 H        -0.303386         1.220585        -0.758198
 H        -0.820445        -0.472335        -0.168143
 H         2.183603        -1.035646        -2.155268
 H         2.084820         0.693947        -2.246478
 H         4.485625         0.186599        -1.847276
 H         4.148815         1.852411         0.429848
 H         5.077882        -0.724887         0.637443
 H         1.602355        -2.258449        -0.039309
 H         1.195485        -1.299523         1.618302
