19
Iteration:  3236charge 0 multiplicity 1
 C         0.087919         0.250989        -0.116507
 C         1.500216        -0.036901        -0.171492
 C         2.366938         0.481776        -1.436874
 C         3.785555         0.495675        -0.806298
 C         3.619167         0.701955         0.616644
 O         2.205003         0.705775         0.950084
 C         4.049357        -0.651687         0.209672
 O         3.112880        -1.709194         0.387339
 C         1.786832        -1.489133        -0.038250
 H        -0.360595         0.163200         0.834733
 H        -0.155388         1.172359        -0.567871
 H        -0.549451        -0.523407        -0.688435
 H         2.307492        -0.080418        -2.309428
 H         1.952353         1.538231        -1.488424
 H         4.523951         0.910702        -1.463688
 H         4.163321         1.439130         1.290090
 H         5.055098        -1.024094         0.269364
 H         1.749931        -2.008599        -1.070605
 H         1.296470        -2.191120         0.605130
