19
Iteration:  3490charge 0 multiplicity 1
 C         0.058351         0.211159        -0.131724
 C         1.611651        -0.034908        -0.143097
 C         2.348712         0.310800        -1.496359
 C         3.779990         0.354907        -0.914947
 C         3.565043         0.806561         0.585561
 O         2.214169         0.888566         0.813634
 C         3.979534        -0.649309         0.239741
 O         3.134505        -1.741610         0.306614
 C         1.824663        -1.441428         0.311509
 H        -0.422454        -0.382393         0.644079
 H        -0.202506         1.350061         0.081629
 H        -0.342301        -0.089552        -1.112628
 H         2.174088        -0.500103        -2.266330
 H         2.115394         1.285273        -1.959589
 H         4.722837         0.628147        -1.358373
 H         4.189188         1.553244         1.156969
 H         5.006282        -0.919023         0.472393
 H         1.243036        -2.200582        -0.321254
 H         1.344995        -1.393719         1.212057
