19
Iteration:  1722
 C         0.119872         0.455626        -0.209167
 C         1.554019        -0.025369        -0.136452
 C         2.593547         1.070487        -0.793789
 C         3.832815         0.820147         0.082669
 C         3.310053        -0.043933         1.189984
 O         1.909697        -0.106147         1.236915
 C         4.064675        -0.695133         0.075317
 O         3.268506        -1.311218        -1.013182
 C         1.873848        -1.417319        -0.653291
 H        -0.082068         0.792389        -1.302862
 H        -0.599437        -0.337699         0.032002
 H        -0.088137         1.290436         0.442147
 H         2.675536         0.665654        -1.887505
 H         2.188437         2.040435        -0.691000
 H         4.559024         1.556825         0.233369
 H         3.746242         0.035609         2.155506
 H         5.114160        -1.082983         0.185139
 H         1.360287        -1.634439        -1.514095
 H         1.505003        -2.266977        -0.035388
