19
Iteration:  3318
 C         0.069326         0.361571        -0.269901
 C         1.532469         0.008110        -0.095751
 C         2.406586         0.276232        -1.452759
 C         3.781302         0.480895        -0.845341
 C         3.482516         0.676676         0.736816
 O         2.110891         0.789159         0.987837
 C         4.074343        -0.650476         0.107722
 O         3.217248        -1.761228         0.094958
 C         1.829289        -1.472692         0.297908
 H        -0.433824        -0.455425        -0.843114
 H        -0.409641         0.410439         0.739747
 H         0.081651         1.301883        -0.716369
 H         2.265140        -0.620595        -2.219125
 H         2.004612         1.113584        -1.993036
 H         4.469888         1.178020        -1.309248
 H         4.075282         1.254633         1.382342
 H         5.113205        -0.714945         0.478493
 H         1.248261        -2.185165        -0.191478
 H         1.645974        -1.521871         1.481466
