19
Iteration:   732charge 0 multiplicity 1
 C         0.090663         0.526328        -0.173445
 C         1.573743         0.053744        -0.134473
 C         2.530901         1.246923        -0.177388
 C         3.718198         0.712281         0.522186
 C         3.244365        -0.561375         1.267326
 O         1.830214        -0.683451         1.108450
 C         4.059991        -0.596074        -0.106146
 O         3.461216        -1.032388        -1.272434
 C         1.980730        -0.944734        -1.203402
 H         0.088636         1.487920         0.382765
 H        -0.297901         0.651706        -1.133522
 H        -0.765655        -0.011914         0.363144
 H         2.770193         1.479627        -1.224018
 H         2.047296         2.092607         0.211966
 H         4.569065         1.175353         0.982704
 H         3.637086        -0.955789         2.260119
 H         5.152740        -0.819866        -0.150370
 H         1.652857        -0.705477        -2.180613
 H         1.517687        -1.845284        -0.976252
