19
Iteration:  1724
 C         0.131182         0.454280        -0.219526
 C         1.553008        -0.007413        -0.125405
 C         2.587997         1.066065        -0.785640
 C         3.833445         0.817077         0.076885
 C         3.290825        -0.033227         1.186990
 O         1.906082        -0.110163         1.246419
 C         4.058353        -0.710421         0.059621
 O         3.275234        -1.311428        -1.019212
 C         1.880275        -1.422767        -0.639455
 H        -0.025070         0.850817        -1.295089
 H        -0.524288        -0.367005        -0.024267
 H        -0.037003         1.266985         0.490904
 H         2.687818         0.689467        -1.877167
 H         2.134904         2.081071        -0.709712
 H         4.551934         1.589098         0.262268
 H         3.789410         0.078402         2.167888
 H         5.069524        -1.086256         0.170705
 H         1.315949        -1.728178        -1.570543
 H         1.530237        -2.237197        -0.031364
