19
Iteration:  4538charge 0 multiplicity 1
 C         0.121871         0.314487        -0.222066
 C         1.569029        -0.005403        -0.097171
 C         2.323947        -0.284685        -1.484385
 C         3.666488         0.181184        -1.086403
 C         3.541114         0.882366         0.259655
 O         2.185614         1.075264         0.596120
 C         4.049049        -0.582602         0.195524
 O         3.196080        -1.674489         0.537622
 C         1.811335        -1.221554         0.847807
 H         0.194663         1.332319        -0.761797
 H        -0.283336        -0.299846        -0.968291
 H        -0.384947         0.233017         0.770811
 H         2.254893        -1.346322        -1.703179
 H         1.786832         0.241503        -2.379109
 H         4.529021         0.494726        -1.763125
 H         4.173736         1.626676         0.646122
 H         5.111717        -0.813965         0.431104
 H         1.130970        -1.997564         0.496532
 H         1.805044        -0.903265         2.015202
