19
Iteration:  1560
 C         0.108887         0.377723        -0.263355
 C         1.597218         0.097178        -0.120919
 C         2.559032         1.137576        -0.746465
 C         3.794711         0.775255         0.137187
 C         3.279614        -0.117158         1.222945
 O         1.883501        -0.141353         1.284079
 C         4.020255        -0.781306        -0.005246
 O         3.308957        -1.313254        -1.047418
 C         1.936102        -1.262299        -0.739969
 H        -0.216633         0.069098         0.825471
 H        -0.138525         1.387020        -0.600781
 H        -0.420223        -0.411983        -0.810291
 H         2.844330         0.790501        -1.823865
 H         2.310321         2.228041        -0.583377
 H         4.631099         1.374887         0.402072
 H         3.714870         0.005258         2.209829
 H         5.091879        -1.015262         0.179856
 H         1.344166        -1.497751        -1.514848
 H         1.623178        -2.023699        -0.024824
