19
Iteration:  1809
 C         0.090735         0.293672        -0.052765
 C         1.561628         0.105316        -0.180730
 C         2.489015         1.237969        -0.777036
 C         3.770321         0.796755        -0.056545
 C         3.384340         0.042603         1.186767
 O         1.998134        -0.138859         1.177489
 C         4.033337        -0.705535         0.068733
 O         3.177891        -1.661788        -0.563103
 C         1.978592        -1.175407        -1.085108
 H        -0.190049         1.414996         0.207528
 H        -0.367599         0.135625        -1.055558
 H        -0.415895        -0.349478         0.667182
 H         2.610765         1.057073        -1.918331
 H         2.275659         2.216212        -0.472226
 H         4.635877         1.442443        -0.011482
 H         3.983132         0.147471         2.138421
 H         5.088454        -1.061891         0.156236
 H         2.052345        -0.979760        -2.097226
 H         1.227843        -2.013706        -0.812672
