19
Iteration:  3109
 C         0.081676         0.330536        -0.226401
 C         1.564369        -0.062288        -0.104193
 C         2.428668         0.571323        -1.342575
 C         3.797465         0.566187        -0.720609
 C         3.456257         0.613516         0.780342
 O         2.079489         0.721735         0.936580
 C         4.022675        -0.697267         0.170870
 O         3.234015        -1.811218        -0.081119
 C         1.846584        -1.527461         0.196319
 H        -0.252037         0.068418        -1.250594
 H        -0.559447        -0.279863         0.528784
 H        -0.004699         1.402437         0.044496
 H         2.294970         0.019648        -2.341682
 H         2.120368         1.543633        -1.614788
 H         4.544312         1.197392        -1.167834
 H         4.065317         1.122981         1.584897
 H         5.027860        -0.873609         0.458588
 H         1.221374        -2.279369        -0.380025
 H         1.574293        -1.658515         1.278776
