19
Iteration:  1571
 C         0.064995         0.358551        -0.168785
 C         1.526926         0.119122        -0.230360
 C         2.592071         1.137558        -0.707006
 C         3.856948         0.775442         0.109587
 C         3.288529        -0.134692         1.234152
 O         1.889383        -0.123335         1.256554
 C         4.033322        -0.662478         0.055350
 O         3.365635        -1.447667        -1.001676
 C         1.892580        -1.248286        -0.819024
 H        -0.328367         0.230505         0.911826
 H        -0.312543         1.363684        -0.351350
 H        -0.450595        -0.308590        -0.870051
 H         2.655863         1.159813        -1.856252
 H         2.117495         2.142161        -0.512561
 H         4.675408         1.439288         0.201727
 H         3.727590        -0.229102         2.213763
 H         5.039863        -1.140739         0.182442
 H         1.550614        -1.350626        -1.759241
 H         1.598087        -1.961785        -0.067908
