19
Iteration:  3185charge 0 multiplicity 1
 C         0.022742         0.340867        -0.233826
 C         1.528147        -0.040656        -0.149842
 C         2.349264         0.506982        -1.380454
 C         3.771025         0.561784        -0.764784
 C         3.558804         0.657116         0.713162
 O         2.169937         0.658209         0.952286
 C         4.058444        -0.630346         0.155614
 O         3.217982        -1.823383         0.220676
 C         1.838080        -1.495910         0.069859
 H        -0.069554         1.369126         0.089281
 H        -0.337166         0.202505        -1.301533
 H        -0.662374        -0.135649         0.463786
 H         2.146613        -0.309516        -2.205265
 H         2.009584         1.453413        -1.730257
 H         4.564495         1.156370        -1.250741
 H         4.148025         1.327815         1.427430
 H         5.090842        -0.853862         0.321641
 H         1.463203        -2.144238        -0.672126
 H         1.345700        -1.855968         1.058024
