19
Iteration:  3688charge 0 multiplicity 1
 C         0.005964         0.329221        -0.160246
 C         1.538460        -0.039771        -0.099263
 C         2.326505        -0.002632        -1.440719
 C         3.770144         0.314558        -0.948954
 C         3.611714         0.872869         0.482184
 O         2.258453         0.974358         0.812997
 C         4.041449        -0.551025         0.191086
 O         3.170198        -1.664250         0.357315
 C         1.773083        -1.525768         0.398455
 H         0.001874         1.435380         0.116148
 H        -0.348029         0.216131        -1.217873
 H        -0.695272        -0.234628         0.472811
 H         2.266531        -0.964544        -2.099943
 H         2.049487         0.929285        -2.037929
 H         4.543708         0.483300        -1.719930
 H         4.250329         1.539845         0.946746
 H         5.086975        -0.818160         0.514885
 H         1.394632        -2.171262        -0.287549
 H         1.207876        -1.763245         1.402223
