19
Iteration:  4182
 C         0.078433         0.365040        -0.195771
 C         1.528825        -0.010042        -0.128341
 C         2.182904        -0.019599        -1.527456
 C         3.708971         0.165974        -1.082722
 C         3.560709         0.813871         0.339157
 O         2.230195         0.973160         0.742229
 C         4.037560        -0.602417         0.217624
 O         3.271802        -1.668917         0.635628
 C         1.885198        -1.344813         0.543541
 H        -0.241819         0.846177         0.664543
 H        -0.024297         1.146345        -1.016310
 H        -0.588829        -0.488205        -0.593608
 H         1.954345        -1.088760        -1.876794
 H         1.761645         0.660506        -2.205543
 H         4.511205         0.528607        -1.686222
 H         4.350943         1.625738         0.486933
 H         5.074878        -0.684527         0.477232
 H         1.417175        -2.160271        -0.031384
 H         1.388140        -1.289626         1.632920
