19
Iteration:  1684charge 0 multiplicity 1
 C         0.090184         0.348882        -0.142905
 C         1.569904         0.074054        -0.135395
 C         2.514915         1.220409        -0.722727
 C         3.748880         0.813318        -0.053845
 C         3.315905        -0.003641         1.203642
 O         1.918552        -0.101972         1.238195
 C         4.066927        -0.737780         0.076641
 O         3.317773        -1.653193        -0.819046
 C         1.954224        -1.206378        -0.929751
 H        -0.383009        -0.309602        -0.829406
 H        -0.254028         0.051539         0.891152
 H        -0.147860         1.435508        -0.391939
 H         2.553693         1.370019        -1.753245
 H         2.259845         2.293280        -0.363636
 H         4.691437         1.426076         0.129285
 H         3.805855         0.128988         2.222386
 H         5.034315        -1.116445         0.273045
 H         1.596235        -0.906329        -2.021258
 H         1.347283        -2.055149        -0.547423
