19
Iteration:  4906
 C         0.059797         0.321331        -0.215708
 C         1.508687        -0.094598        -0.143124
 C         2.226808        -0.195239        -1.508385
 C         3.689089         0.090596        -1.087431
 C         3.617152         0.870502         0.191406
 O         2.274217         1.009881         0.635995
 C         4.127214        -0.547130         0.218775
 O         3.180323        -1.567053         0.669352
 C         1.812016        -1.280406         0.745330
 H        -0.062257         1.491843         0.017210
 H        -0.397363         0.142258        -1.161825
 H        -0.445354        -0.247790         0.552567
 H         2.151204        -1.149839        -2.124550
 H         2.131316         0.708380        -2.162160
 H         4.414809         0.293940        -1.822932
 H         4.140206         1.856364         0.395172
 H         5.102445        -0.780855         0.530492
 H         1.157335        -2.216922         0.657859
 H         1.471268        -0.782738         1.705845
