19
Iteration:  4309charge 0 multiplicity 1
 C         0.093918         0.297540        -0.266921
 C         1.566501        -0.016080        -0.172395
 C         2.253188        -0.103096        -1.526267
 C         3.717659         0.185042        -1.070662
 C         3.544472         0.867684         0.385921
 O         2.236167         0.955019         0.761743
 C         4.059835        -0.572927         0.169439
 O         3.196733        -1.683816         0.537034
 C         1.847263        -1.284617         0.688821
 H        -0.415668         0.256927         0.812106
 H         0.075668         1.340775        -0.582803
 H        -0.555876        -0.422102        -0.927478
 H         2.175459        -0.994164        -2.108055
 H         1.862314         0.721424        -2.204182
 H         4.321256         0.672530        -1.784455
 H         4.212793         1.676481         0.809092
 H         5.087301        -0.730936         0.472408
 H         1.085833        -2.124139         0.506101
 H         1.656666        -0.842269         1.614971
