19
Iteration:  2198charge 0 multiplicity 1
 C         0.050869         0.332895        -0.197347
 C         1.565581         0.003919        -0.232078
 C         2.422282         1.121433        -0.874836
 C         3.811924         0.788219        -0.293784
 C         3.462293         0.220894         1.116809
 O         2.073988         0.062268         1.219809
 C         4.001096        -0.640153         0.053700
 O         3.227656        -1.791031        -0.329120
 C         1.898535        -1.342685        -0.769774
 H        -0.429997         0.037341        -1.213183
 H        -0.512249        -0.195277         0.630288
 H        -0.085281         1.361975         0.021359
 H         2.433905         1.024748        -1.961063
 H         2.032999         2.163720        -0.724710
 H         4.652023         1.368076        -0.627955
 H         3.959383         0.534863         1.994482
 H         5.063754        -0.841657         0.036630
 H         1.829889        -1.287690        -1.862404
 H         1.098762        -1.977242        -0.295155
