19
Iteration:  2666
 C        -0.028771         0.321564        -0.160623
 C         1.526807         0.025224        -0.164452
 C         2.436123         0.842454        -1.187396
 C         3.770286         0.692695        -0.579786
 C         3.557470         0.405472         0.988369
 O         2.089754         0.417976         1.107306
 C         4.057759        -0.661052         0.104705
 O         3.256897        -1.788359        -0.080200
 C         1.832632        -1.471702        -0.359409
 H        -0.302533         0.676747        -1.198978
 H        -0.497187        -0.660046         0.018023
 H        -0.405315         1.110408         0.498980
 H         2.269295         0.374745        -2.276926
 H         2.192846         1.843452        -1.377649
 H         4.649172         1.260232        -0.957406
 H         4.092297         0.691985         1.938077
 H         5.108708        -0.914769         0.285046
 H         1.693012        -1.747730        -1.490256
 H         1.246710        -2.204114         0.315817
