19
Iteration:   664charge 0 multiplicity 1
 C         0.044431         0.231507        -0.173114
 C         1.535965         0.182853        -0.161239
 C         2.408039         1.380885         0.033804
 C         3.840989         0.749539         0.436833
 C         3.355580        -0.526496         1.194309
 O         1.915341        -0.558699         1.062776
 C         4.004268        -0.751391        -0.098820
 O         3.229079        -1.441776        -1.071971
 C         2.187644        -0.522058        -1.419183
 H        -0.266675         0.600849        -1.126328
 H        -0.414248        -0.769836         0.077321
 H        -0.491814         0.884184         0.493788
 H         2.389371         2.065189        -0.865611
 H         1.995581         1.935267         0.862824
 H         4.637794         1.426931         0.797166
 H         3.698853        -0.855414         2.118269
 H         5.086598        -1.061338        -0.060639
 H         2.489924         0.202999        -2.141474
 H         1.455241        -1.028960        -1.906895
