19
Iteration:  3910charge 0 multiplicity 1
 C         0.019904         0.420894        -0.165788
 C         1.512973        -0.061332        -0.183983
 C         2.290909         0.040115        -1.459477
 C         3.743829         0.240057        -1.006178
 C         3.535367         0.789278         0.430218
 O         2.202799         0.918421         0.591071
 C         4.046159        -0.610929         0.233270
 O         3.251758        -1.705911         0.507908
 C         1.879309        -1.367532         0.599224
 H        -0.140338         1.042057        -1.013556
 H        -0.770109        -0.331538        -0.005848
 H        -0.017246         1.090725         0.752977
 H         2.257267        -1.064149        -1.931475
 H         1.802124         0.645890        -2.234039
 H         4.480426         0.695301        -1.702730
 H         4.113872         1.595944         0.776240
 H         5.123636        -0.709143         0.410926
 H         1.229668        -2.242811         0.150695
 H         1.730782        -1.153685         1.723869
