19
Iteration:   364
 C         0.091190         0.572110        -0.097627
 C         1.510115         0.098370        -0.127422
 C         2.494068         1.175936         0.031168
 C         3.757494         0.584124         0.671084
 C         3.207893        -0.808085         1.123891
 O         1.756907        -0.721814         1.057157
 C         4.092499        -0.616240        -0.078570
 O         3.482643        -0.691939        -1.404227
 C         2.127057        -0.892617        -1.341588
 H        -0.544571        -0.223438         0.170376
 H        -0.077873         1.345509         0.588743
 H        -0.320365         0.812757        -1.139070
 H         2.744643         1.665753        -0.849773
 H         1.975788         1.838918         0.725644
 H         4.432863         1.194263         1.340730
 H         3.474302        -1.359651         2.079125
 H         5.067554        -1.120715        -0.129986
 H         1.707008        -0.611406        -2.347178
 H         1.762346        -1.933430        -1.216210
