19
Iteration:   118
 C         0.106848         0.451043        -0.107720
 C         1.568984         0.104487        -0.157429
 C         2.490879         1.217406         0.326851
 C         3.727374         0.495893         0.743045
 C         3.188867        -0.907970         1.083007
 O         1.779842        -0.934746         0.913407
 C         4.019164        -0.685265        -0.086500
 O         3.514756        -0.643510        -1.380869
 C         2.122951        -0.426299        -1.505383
 H        -0.211486         1.335614        -0.846315
 H        -0.488738        -0.447113        -0.419646
 H        -0.169483         0.682498         0.911299
 H         2.487999         2.111686        -0.383661
 H         1.967100         1.561651         1.246328
 H         4.458084         0.949024         1.385358
 H         3.477200        -1.445565         1.991538
 H         4.996137        -1.066988        -0.122605
 H         1.935140         0.337504        -2.304375
 H         1.554285        -1.415542        -1.694083
