19
Iteration:   570charge 0 multiplicity 1
 C         0.084849         0.439308        -0.153818
 C         1.577788         0.046931        -0.053296
 C         2.614505         1.219524        -0.183292
 C         3.789073         0.608524         0.597949
 C         3.179215        -0.624631         1.197433
 O         1.769226        -0.633750         1.086744
 C         4.026240        -0.725033        -0.052856
 O         3.444206        -0.703279        -1.347716
 C         2.008871        -0.877134        -1.214075
 H        -0.557928        -0.275508         0.348346
 H        -0.084341         1.442350         0.058307
 H        -0.220185         0.225310        -1.268234
 H         2.773540         1.448903        -1.233635
 H         2.173167         2.108431         0.387584
 H         4.649866         1.019774         1.086138
 H         3.615665        -1.178182         1.962386
 H         5.038436        -1.254690         0.040877
 H         1.430573        -0.853068        -2.085586
 H         1.814793        -1.981518        -0.929360
