19
Iteration:  1859
 C         0.139369         0.396335        -0.229360
 C         1.593237         0.062710        -0.195686
 C         2.398738         1.279530        -0.689184
 C         3.726772         0.835136        -0.172353
 C         3.417588         0.094506         1.158103
 O         2.025178        -0.176291         1.274354
 C         4.009563        -0.745870         0.035076
 O         3.251095        -1.743474        -0.571544
 C         1.939915        -1.202910        -0.913102
 H        -0.221042         0.295850         0.743033
 H        -0.199451         1.359115        -0.663441
 H        -0.365455        -0.406849        -0.811737
 H         2.249083         1.258429        -1.716249
 H         2.040732         2.213334        -0.080145
 H         4.567386         1.486711        -0.192910
 H         3.973219         0.367405         1.996683
 H         5.078883        -1.072340         0.159579
 H         1.932313        -1.135528        -2.073043
 H         1.240086        -1.944676        -0.654854
