19
Iteration:  3247charge 0 multiplicity 1
 C         0.033843         0.223708        -0.113122
 C         1.563347         0.027660        -0.203420
 C         2.336010         0.461281        -1.450177
 C         3.740178         0.486384        -0.809567
 C         3.616333         0.724321         0.689159
 O         2.223159         0.704775         0.953010
 C         4.076017        -0.663739         0.168580
 O         3.124925        -1.698940         0.405959
 C         1.771796        -1.523235        -0.053284
 H        -0.221411        -0.185852         0.846268
 H        -0.304309         1.213261        -0.124064
 H        -0.248232        -0.399553        -1.028438
 H         2.231954        -0.253188        -2.199129
 H         2.229644         1.437874        -2.008861
 H         4.568617         1.018892        -1.255428
 H         4.310836         1.397932         1.306607
 H         5.086291        -1.000476         0.312630
 H         1.523398        -1.989491        -1.106921
 H         1.023608        -1.796151         0.668497
