19
Iteration:  4118
 C         0.011183         0.123672        -0.190664
 C         1.583468         0.094799        -0.122497
 C         2.282256        -0.111864        -1.462309
 C         3.738895         0.148381        -1.012772
 C         3.597564         0.818192         0.374361
 O         2.268415         1.138718         0.688607
 C         4.036867        -0.646292         0.169065
 O         3.184267        -1.701901         0.453359
 C         1.817272        -1.141289         0.664560
 H        -0.406474        -0.662412         0.463198
 H        -0.481469         1.145503         0.201446
 H        -0.462962         0.012923        -1.270212
 H         2.122506        -1.202720        -1.788505
 H         1.946957         0.465868        -2.299001
 H         4.534169         0.354615        -1.667476
 H         4.299353         1.702191         0.580308
 H         5.038030        -0.932307         0.401923
 H         1.062396        -1.845096         0.282280
 H         1.721939        -1.064904         1.668930
