19
Iteration:  4049charge 0 multiplicity 1
 C         0.006041         0.431192        -0.117940
 C         1.473703        -0.024306        -0.165292
 C         2.277618        -0.086308        -1.577352
 C         3.696167         0.173845        -1.054011
 C         3.611018         0.822996         0.330051
 O         2.274814         0.870618         0.669481
 C         4.085647        -0.554433         0.174339
 O         3.248881        -1.540664         0.798001
 C         1.818389        -1.412064         0.456321
 H        -0.225309         0.409679         0.997762
 H        -0.030534         1.457648        -0.407855
 H        -0.798598        -0.199604        -0.717287
 H         1.998916        -1.036358        -2.034859
 H         1.829163         0.649707        -2.222371
 H         4.519074         0.483049        -1.777974
 H         4.108623         1.712712         0.553659
 H         5.172364        -0.807689         0.356217
 H         1.603773        -2.164450        -0.230288
 H         1.248517        -1.613155         1.341048
