19
Iteration:  1069
 C         0.036155         0.326404        -0.175637
 C         1.554175         0.126663        -0.194287
 C         2.432538         1.364695        -0.244995
 C         3.772330         0.734296         0.187268
 C         3.374932        -0.252555         1.227994
 O         1.964161        -0.453073         1.123253
 C         4.082614        -0.687244        -0.070797
 O         3.216769        -1.573547        -0.802017
 C         2.065265        -0.826064        -1.284440
 H        -0.560431        -0.655753        -0.249243
 H        -0.109616         0.815319         0.874601
 H        -0.362866         1.081360        -0.896896
 H         2.459489         1.609421        -1.367237
 H         1.963522         2.151328         0.338180
 H         4.652278         1.367551         0.415851
 H         3.744089        -0.387543         2.218110
 H         5.186180        -0.870705        -0.149393
 H         2.369635        -0.169733        -2.089466
 H         1.360763        -1.619149        -1.712168
