19
Iteration:  2472charge 0 multiplicity 1
 C         0.014709         0.326454        -0.221330
 C         1.515583         0.032026        -0.160452
 C         2.461528         0.827332        -1.054353
 C         3.800427         0.755244        -0.432428
 C         3.516657         0.294855         1.071211
 O         2.077376         0.329134         1.218893
 C         4.050437        -0.679556         0.053077
 O         3.243792        -1.701512        -0.239128
 C         1.836579        -1.429893        -0.544348
 H        -0.322914         1.300229        -0.682263
 H        -0.520058        -0.465100        -0.753005
 H        -0.337811         0.215174         0.843080
 H         2.504401         0.285509        -2.035429
 H         2.245338         1.916540        -1.257822
 H         4.558912         1.470710        -0.737761
 H         4.020414         0.773865         1.882880
 H         5.026970        -1.023203         0.062446
 H         1.538545        -1.566543        -1.687127
 H         1.218003        -2.108653         0.037430
