19
Iteration:  1838charge 0 multiplicity 1
 C         0.009332         0.411476        -0.072225
 C         1.517976         0.070253        -0.188584
 C         2.401187         1.252835        -0.669001
 C         3.776391         0.753818        -0.181746
 C         3.429854         0.074300         1.168971
 O         1.978556        -0.120580         1.119741
 C         4.053214        -0.701823         0.078351
 O         3.286841        -1.758420        -0.488572
 C         2.026342        -1.238527        -1.057017
 H        -0.168322         0.858399         0.854875
 H        -0.291762         1.152155        -0.838180
 H        -0.753011        -0.355864        -0.134114
 H         2.359326         1.426206        -1.693108
 H         2.187121         2.122697         0.019803
 H         4.662734         1.324401        -0.281927
 H         3.852029         0.313542         2.105965
 H         5.151654        -0.961812         0.125761
 H         2.227097        -0.883812        -2.189041
 H         1.371244        -2.064450        -1.141832
