19
Iteration:   134
 C         0.018075         0.480440        -0.218385
 C         1.531796         0.067428        -0.106988
 C         2.541416         1.295892         0.381651
 C         3.765079         0.495614         0.885440
 C         3.207034        -0.929096         1.119658
 O         1.801450        -0.913385         0.862966
 C         4.075766        -0.611151        -0.138873
 O         3.509374        -0.601319        -1.463752
 C         2.019864        -0.605193        -1.419673
 H         0.072983         1.491443        -0.287586
 H        -0.543649         0.003246        -1.022969
 H        -0.495995         0.295332         0.778501
 H         2.914278         1.807953        -0.445532
 H         2.102546         1.937882         1.139706
 H         4.577116         1.063455         1.390237
 H         3.465009        -1.737486         1.795800
 H         5.136071        -1.057915        -0.102165
 H         1.703926         0.025451        -2.261245
 H         1.603306        -1.575656        -1.570733
