19
Iteration:  3382
 C         0.085975         0.300981        -0.178203
 C         1.522089         0.003570        -0.145829
 C         2.306999         0.443931        -1.433630
 C         3.758131         0.368095        -0.830564
 C         3.508289         0.709411         0.635803
 O         2.138826         0.864794         0.794168
 C         4.033780        -0.674317         0.198880
 O         3.274114        -1.875381         0.297412
 C         1.870370        -1.421576         0.234204
 H        -0.256505         1.070179        -0.803782
 H        -0.533205        -0.613413        -0.491822
 H        -0.163692         0.606217         0.787198
 H         2.089796        -0.203909        -2.367664
 H         2.250287         1.437394        -1.668843
 H         4.523690         0.885294        -1.388229
 H         3.980855         1.370601         1.306528
 H         5.025019        -1.079848         0.514570
 H         1.438640        -2.134267        -0.474405
 H         1.434374        -1.559458         1.233273
