19
Iteration:  1041
 C         0.071187         0.221980        -0.259643
 C         1.583265         0.194538        -0.125505
 C         2.478743         1.424514        -0.157161
 C         3.743535         0.769146         0.140785
 C         3.393742        -0.251629         1.193814
 O         2.014333        -0.452290         1.153707
 C         3.995029        -0.763743        -0.010899
 O         3.178664        -1.571945        -0.870082
 C         2.025793        -0.772818        -1.298038
 H        -0.303561        -0.486661         0.447482
 H        -0.260362         1.215276        -0.039527
 H        -0.251226        -0.106780        -1.259182
 H         2.432357         1.702045        -1.171490
 H         2.089244         2.046365         0.683729
 H         4.554590         1.459568         0.222084
 H         3.869175        -0.407005         2.228620
 H         5.055618        -1.067372         0.171510
 H         2.347869        -0.026237        -2.075646
 H         1.296105        -1.471472        -1.683989
