19
Iteration:  3406
 C         0.019032         0.322648        -0.198250
 C         1.506280        -0.045837        -0.137637
 C         2.395012         0.407831        -1.484782
 C         3.747908         0.437825        -0.896458
 C         3.595504         0.690789         0.568631
 O         2.207835         0.742166         0.925143
 C         4.024390        -0.628597         0.167996
 O         3.210686        -1.685404         0.428347
 C         1.779218        -1.492369         0.178625
 H        -0.261001         1.374496        -0.140357
 H        -0.486074        -0.131756        -1.032440
 H        -0.378119        -0.088618         0.680782
 H         2.346513        -0.462943        -2.234564
 H         2.134191         1.327549        -1.966741
 H         4.574197         0.742327        -1.515201
 H         4.197514         1.422539         1.195577
 H         5.014212        -1.023916         0.306458
 H         1.576051        -2.193271        -0.574950
 H         1.201131        -1.806166         1.137582
