19
Iteration:  1042
 C         0.073572         0.221559        -0.255902
 C         1.584960         0.191126        -0.119868
 C         2.479423         1.422083        -0.166153
 C         3.736458         0.778427         0.146811
 C         3.399808        -0.256335         1.190827
 O         2.014229        -0.453525         1.152280
 C         3.999868        -0.769076        -0.009872
 O         3.174864        -1.571453        -0.863475
 C         2.028483        -0.772830        -1.305558
 H        -0.320249        -0.516578         0.422606
 H        -0.303211         1.274612        -0.021018
 H        -0.260724        -0.074833        -1.279445
 H         2.406325         1.722795        -1.169782
 H         2.107397         2.044905         0.679311
 H         4.545736         1.478247         0.208488
 H         3.882440        -0.400014         2.212261
 H         5.019214        -1.086224         0.179630
 H         2.347958        -0.022714        -2.068255
 H         1.332507        -1.466850        -1.685864
