19
Iteration:   370charge 0 multiplicity 1
 C         0.082970         0.556250        -0.144616
 C         1.523319         0.025258        -0.157032
 C         2.526172         1.172207         0.054400
 C         3.756865         0.588420         0.705154
 C         3.203328        -0.747003         1.140150
 O         1.777181        -0.729347         1.057597
 C         4.093689        -0.640068        -0.141668
 O         3.474873        -0.680109        -1.352461
 C         2.047814        -0.876999        -1.347797
 H        -0.668779        -0.304445        -0.031432
 H        -0.090086         1.271744         0.740475
 H        -0.149373         1.138196        -1.058363
 H         2.756900         1.741759        -0.932506
 H         2.083875         1.883272         0.826768
 H         4.397315         1.206226         1.269229
 H         3.640702        -1.304243         1.940193
 H         5.060152        -1.123001        -0.084374
 H         1.817261        -0.644416        -2.377213
 H         1.725268        -1.901341        -1.037008
