19
Iteration:  1928charge 0 multiplicity 1
 C         0.095957         0.418697        -0.141262
 C         1.543149         0.010289        -0.192289
 C         2.528369         1.004378        -0.806702
 C         3.826400         0.757142        -0.027418
 C         3.295253         0.016286         1.173440
 O         1.872204         0.144297         1.277247
 C         3.969878        -0.727367         0.010478
 O         3.344081        -1.429068        -0.954772
 C         1.992559        -1.456106        -0.655032
 H        -0.566031        -0.478874        -0.341527
 H        -0.088968         0.723491         0.855340
 H        -0.077504         1.220247        -0.773102
 H         2.759862         0.732023        -1.847539
 H         2.181547         2.003686        -0.554438
 H         4.701664         1.460788         0.006259
 H         3.927329         0.117511         2.136689
 H         4.886713        -1.155230         0.339759
 H         1.467576        -1.874452        -1.632808
 H         1.741410        -2.112235         0.173685
