19
Iteration:  1767
 C         0.017348         0.360291        -0.301888
 C         1.516987         0.057031        -0.101036
 C         2.493631         1.192558        -0.614436
 C         3.846372         0.771073        -0.035506
 C         3.433702        -0.085964         1.143771
 O         1.949499         0.049333         1.253674
 C         4.072782        -0.733481        -0.034733
 O         3.353373        -1.511847        -0.835623
 C         1.865937        -1.345082        -0.762384
 H        -0.264071         1.354519        -0.850166
 H        -0.454923        -0.396901        -0.899369
 H        -0.663651         0.383618         0.556403
 H         2.503474         1.230617        -1.791798
 H         2.259563         2.090318        -0.037085
 H         4.590635         1.524452         0.217246
 H         3.754910        -0.025988         2.223889
 H         5.028089        -1.238994         0.148175
 H         1.423323        -1.538428        -1.762746
 H         1.439061        -2.225959        -0.155859
