19
Iteration:   473charge 0 multiplicity 1
 C         0.032206         0.353312        -0.127153
 C         1.520310         0.105521        -0.110599
 C         2.445670         1.386682         0.036151
 C         3.730335         0.710144         0.587039
 C         3.301255        -0.600191         1.162552
 O         1.923643        -0.804714         0.908667
 C         4.089740        -0.682417        -0.117793
 O         3.274191        -1.290393        -1.073761
 C         2.155671        -0.431834        -1.455550
 H        -0.060961         1.452699        -0.040582
 H        -0.521166         0.049509        -1.002623
 H        -0.397124        -0.186941         0.856456
 H         2.586313         2.033649        -0.836660
 H         2.062206         2.140762         0.898552
 H         4.533773         1.231552         1.123539
 H         3.616904        -1.032046         2.064198
 H         5.190899        -1.004832        -0.082751
 H         2.462269         0.241377        -2.259878
 H         1.471856        -1.172177        -1.928261
