19
Iteration:  3048
 C         0.046553         0.330226        -0.136745
 C         1.526428        -0.020566        -0.218618
 C         2.333201         0.635321        -1.354891
 C         3.720825         0.521460        -0.738398
 C         3.533289         0.665497         0.759201
 O         2.164123         0.608904         0.993304
 C         4.056395        -0.626399         0.207810
 O         3.214636        -1.850647         0.245783
 C         1.911761        -1.532943        -0.209121
 H        -0.754068        -0.443897         0.056564
 H         0.066420         1.021551         0.679946
 H        -0.331345         0.778825        -1.005000
 H         2.172980         0.036978        -2.187097
 H         1.949781         1.752361        -1.231231
 H         4.544523         1.092856        -1.249702
 H         4.099618         1.322315         1.484693
 H         5.056767        -0.989075         0.395825
 H         1.762528        -1.991694        -1.140400
 H         1.254375        -2.021848         0.544457
