19
Iteration:   831
 C         0.048954         0.418210        -0.131011
 C         1.540505         0.075762        -0.210148
 C         2.449426         1.287521        -0.103356
 C         3.789707         0.755391         0.373504
 C         3.307876        -0.403694         1.233018
 O         1.954462        -0.557576         1.042312
 C         4.025008        -0.690240        -0.012822
 O         3.347802        -1.379398        -1.054484
 C         2.039863        -0.752880        -1.374583
 H        -0.567418        -0.511745        -0.462003
 H        -0.276337         0.502574         0.876885
 H        -0.346834         1.303278        -0.741746
 H         2.493668         1.816645        -1.053333
 H         2.075471         1.919373         0.686350
 H         4.598274         1.342506         0.865461
 H         3.701559        -0.564054         2.281975
 H         5.034214        -0.965850         0.062055
 H         2.041802        -0.192740        -2.305239
 H         1.412914        -1.605440        -1.462047
