19
Iteration:  2434
 C         0.051324         0.373316        -0.125555
 C         1.567779         0.004774        -0.273611
 C         2.421773         1.079917        -0.966692
 C         3.792844         0.705220        -0.529884
 C         3.445960         0.330591         0.969656
 O         2.058335         0.176435         1.110273
 C         4.037511        -0.659843         0.169425
 O         3.204406        -1.802362        -0.092009
 C         1.923631        -1.468694        -0.671166
 H        -0.475035         0.647946        -1.042525
 H        -0.533874        -0.385633         0.511077
 H         0.148092         1.353942         0.396956
 H         2.187442         0.979366        -2.055438
 H         2.054790         2.039801        -0.724090
 H         4.566194         1.422033        -0.847790
 H         4.015320         0.769784         1.837844
 H         5.161948        -0.920812         0.325515
 H         1.909217        -1.755614        -1.649211
 H         1.290068        -2.173408        -0.032223
