19
Iteration:   191charge 0 multiplicity 1
 C         0.035481         0.447187        -0.109296
 C         1.537467         0.089352        -0.149746
 C         2.562636         1.182562         0.280124
 C         3.782000         0.476697         0.768677
 C         3.155830        -0.789209         1.140976
 O         1.785200        -0.845326         1.016350
 C         4.002824        -0.701591        -0.128280
 O         3.542619        -0.590548        -1.480599
 C         2.098011        -0.599189        -1.497189
 H        -0.530944        -0.043636         0.654868
 H        -0.186896         1.504343        -0.083434
 H        -0.305249         0.005226        -1.033510
 H         2.830820         1.960679        -0.454671
 H         2.086192         1.742031         1.085311
 H         4.322004         1.079821         1.455450
 H         3.482817        -1.391525         1.994380
 H         4.867668        -1.253313        -0.136089
 H         1.811293         0.031246        -2.305886
 H         1.706761        -1.582375        -1.575535
