19
Iteration:    64charge 0 multiplicity 1
 C         0.103043         0.339877        -0.194103
 C         1.540355         0.200561        -0.109928
 C         2.436526         1.285262         0.496563
 C         3.719118         0.487403         0.828487
 C         3.289486        -0.884702         1.085820
 O         1.861298        -0.964235         0.712043
 C         4.172503        -0.648336        -0.164792
 O         3.296856        -0.910938        -1.274601
 C         2.137238        -0.165244        -1.487916
 H        -0.387487        -0.684265        -0.619523
 H        -0.259801         0.474344         0.847997
 H        -0.290709         1.079276        -0.878163
 H         2.655852         2.061764        -0.293364
 H         2.023733         1.700350         1.420661
 H         4.399568         1.033305         1.430586
 H         3.381135        -1.591350         1.891492
 H         5.112540        -1.055264        -0.306922
 H         2.116715         0.770662        -2.133075
 H         1.356619        -0.828607        -1.972180
