19
Iteration:  2561charge 0 multiplicity 1
 C         0.095451         0.336141        -0.271428
 C         1.533344         0.041007        -0.112136
 C         2.438249         0.715146        -1.205429
 C         3.782139         0.706765        -0.477192
 C         3.472188         0.443585         1.097729
 O         2.069652         0.370253         1.250403
 C         4.038633        -0.682957         0.142217
 O         3.242453        -1.699115        -0.465302
 C         1.816300        -1.442610        -0.272911
 H        -0.269781        -0.013267         0.667623
 H        -0.027619         1.383976        -0.383641
 H        -0.302680        -0.225738        -1.212022
 H         2.479949         0.147130        -2.072036
 H         2.092766         1.813766        -1.279579
 H         4.570925         1.382817        -0.839575
 H         3.903999         0.754991         2.079689
 H         5.070723        -1.054167         0.328313
 H         1.308722        -1.840324        -1.272300
 H         1.482409        -2.129598         0.488157
