19
Iteration:  1176charge 0 multiplicity 1
 C         0.036183         0.421556        -0.341233
 C         1.544584         0.121711        -0.115079
 C         2.529127         1.263112        -0.344797
 C         3.824741         0.766394         0.270194
 C         3.335001        -0.335056         1.207512
 O         1.892661        -0.244750         1.247409
 C         4.049821        -0.727746        -0.063646
 O         3.368639        -1.242579        -1.183127
 C         1.910129        -1.284608        -0.908087
 H        -0.246101         1.462106        -0.115534
 H        -0.299193         0.037855        -1.370625
 H        -0.512432        -0.083101         0.460401
 H         2.755016         1.510373        -1.385942
 H         2.020453         2.130585         0.312523
 H         4.696696         1.419837         0.388485
 H         3.768631        -0.475093         2.206137
 H         5.096334        -1.113234         0.113351
 H         1.519437        -1.266162        -1.940392
 H         1.682112        -2.178507        -0.302632
