19
Iteration:  2289charge 0 multiplicity 1
 C         0.003989         0.283744        -0.209801
 C         1.569053         0.060172        -0.138766
 C         2.525927         0.960107        -1.034441
 C         3.822213         0.754969        -0.289859
 C         3.453880         0.253543         1.136374
 O         2.018851         0.186179         1.233370
 C         4.020594        -0.657975         0.060066
 O         3.249654        -1.660994        -0.509143
 C         1.847979        -1.387794        -0.561961
 H        -0.267704         1.179269         0.338316
 H        -0.153839         0.530983        -1.250650
 H        -0.652179        -0.619719        -0.001310
 H         2.530418         0.579756        -1.987549
 H         2.191215         2.050846        -1.033347
 H         4.775240         1.298192        -0.443338
 H         3.978135         0.486223         2.098938
 H         5.026216        -1.060775         0.212246
 H         1.502187        -1.736561        -1.503815
 H         1.269470        -1.955552         0.317380
