19
Iteration:   340
 C         0.070327         0.414669        -0.078820
 C         1.543858         0.114096        -0.111187
 C         2.583264         1.319648         0.065966
 C         3.693940         0.555898         0.685897
 C         3.158905        -0.707993         1.144688
 O         1.757462        -0.801469         1.030452
 C         3.998473        -0.697154        -0.140581
 O         3.587241        -0.774531        -1.420118
 C         2.091100        -0.689411        -1.336922
 H        -0.368803         0.304901         0.854990
 H        -0.036992         1.456751        -0.269753
 H        -0.679121        -0.179069        -0.771900
 H         2.925543         1.723476        -0.893154
 H         2.086386         2.107380         0.741457
 H         4.479212         1.086645         1.193183
 H         3.555816        -1.332691         1.979366
 H         4.908782        -1.173341        -0.008981
 H         1.808894        -0.484725        -2.348255
 H         1.546450        -1.662761        -1.151641
