19
Iteration:  4001
 C         0.073946         0.235603        -0.107149
 C         1.545941         0.018579        -0.138361
 C         2.249544         0.181129        -1.575667
 C         3.684709         0.078442        -1.103972
 C         3.610425         0.803521         0.347799
 O         2.220559         1.022879         0.576729
 C         4.034313        -0.634190         0.260233
 O         3.235269        -1.697794         0.728093
 C         1.852870        -1.351303         0.542143
 H        -0.283855         1.047199         0.556261
 H        -0.320523         0.380488        -1.156588
 H        -0.333782        -0.679911         0.116127
 H         2.104828        -0.545707        -2.398464
 H         1.923332         1.230511        -1.934256
 H         4.477171         0.328918        -1.764208
 H         4.146292         1.671388         0.878888
 H         5.062723        -0.953154         0.351480
 H         1.367719        -2.160386         0.062405
 H         1.368355        -1.122413         1.596454
