19
Iteration:  1129
 C         0.041374         0.427859        -0.234125
 C         1.551430         0.004911        -0.123831
 C         2.538978         1.210249        -0.481609
 C         3.825112         0.767590         0.334402
 C         3.280966        -0.357487         1.268859
 O         1.874881        -0.308168         1.272446
 C         4.052173        -0.701650        -0.043012
 O         3.364259        -1.144352        -1.193461
 C         1.965193        -1.165407        -0.981989
 H        -0.114353         0.770873        -1.237890
 H        -0.665047        -0.398705        -0.036610
 H        -0.113560         1.322841         0.377909
 H         2.705157         1.071768        -1.608965
 H         2.153785         2.281880        -0.136190
 H         4.662000         1.389539         0.660343
 H         3.762904        -0.735724         2.157740
 H         5.003165        -1.142338        -0.038010
 H         1.431529        -1.098643        -1.997318
 H         1.701574        -2.101086        -0.411752
