19
Iteration:  4686charge 0 multiplicity 1
 C        -0.037007         0.293738        -0.226323
 C         1.530844        -0.026112        -0.051415
 C         2.214321        -0.180092        -1.394677
 C         3.739384         0.046295        -1.159627
 C         3.592653         0.886463         0.178021
 O         2.195817         1.216730         0.476679
 C         4.092204        -0.635346         0.209699
 O         3.323222        -1.628690         0.845480
 C         1.865112        -1.320643         0.702904
 H        -0.699218        -0.131757         0.535731
 H        -0.034496         1.474897        -0.232970
 H        -0.361265         0.074238        -1.211602
 H         1.856999        -1.148361        -1.810294
 H         1.798168         0.531375        -2.037190
 H         4.449388         0.169879        -2.039807
 H         4.268884         1.644099         0.473929
 H         5.142751        -1.008085         0.290452
 H         1.438512        -2.109102        -0.012260
 H         1.295456        -1.286963         1.677064
