19
Iteration:  2849
 C         0.061311         0.311750        -0.196891
 C         1.573564        -0.065042        -0.252442
 C         2.340856         0.853541        -1.254056
 C         3.758091         0.612868        -0.669567
 C         3.545472         0.535148         0.879729
 O         2.145394         0.449140         1.059796
 C         3.974990        -0.630820         0.099676
 O         3.247188        -1.846365         0.149119
 C         1.871047        -1.504694        -0.251161
 H        -0.690492        -0.253102        -0.713908
 H        -0.221767         0.495404         0.879772
 H        -0.109708         1.281375        -0.578377
 H         2.259222         0.620547        -2.231932
 H         1.960790         1.951975        -1.163982
 H         4.642933         1.072881        -1.152586
 H         3.945433         1.021202         1.763274
 H         5.058651        -0.946399         0.146753
 H         1.641659        -1.934714        -1.191705
 H         1.152643        -1.952871         0.520957
