19
Iteration:  4046
 C        -0.012397         0.418780        -0.098860
 C         1.496194        -0.022149        -0.138745
 C         2.282348        -0.098408        -1.565679
 C         3.728119         0.177675        -1.067124
 C         3.616058         0.833219         0.323844
 O         2.264068         0.863991         0.648845
 C         4.097582        -0.549671         0.184774
 O         3.212420        -1.551738         0.795968
 C         1.837559        -1.395532         0.443701
 H        -0.311262         0.550850         0.993328
 H        -0.146309         1.419680        -0.490927
 H        -0.649403        -0.195467        -0.616471
 H         1.942976        -1.040516        -1.911573
 H         1.850156         0.679397        -2.306231
 H         4.479540         0.570952        -1.754875
 H         4.169296         1.796236         0.569576
 H         5.089484        -0.880989         0.285245
 H         1.633777        -2.125506        -0.355388
 H         1.200976        -1.756935         1.378662
