19
Iteration:  1999charge 0 multiplicity 1
 C         0.017228         0.303769        -0.155836
 C         1.536627         0.059661        -0.180009
 C         2.439908         1.184566        -0.678504
 C         3.797331         0.799045        -0.126008
 C         3.447180         0.156488         1.100134
 O         2.027713         0.078194         1.171805
 C         4.002317        -0.749079         0.012177
 O         3.252403        -1.762707        -0.520063
 C         1.976694        -1.292172        -0.917228
 H        -0.241618         0.608919        -1.155495
 H        -0.516042        -0.666834         0.072999
 H        -0.187886         1.126337         0.640986
 H         2.457381         1.165030        -1.769857
 H         2.104231         2.093984        -0.188956
 H         4.693898         1.349764        -0.334638
 H         3.844077         0.401106         2.088727
 H         5.091408        -1.040935        -0.008814
 H         1.828963        -1.096024        -1.957455
 H         1.254437        -2.189812        -0.599590
