19
Iteration:   229charge 0 multiplicity 1
 C         0.068602         0.362310        -0.114246
 C         1.600556         0.158630        -0.084061
 C         2.523869         1.331430         0.257677
 C         3.678209         0.604193         0.739317
 C         3.213306        -0.802443         1.133086
 O         1.867022        -0.915988         0.810036
 C         4.052016        -0.626603        -0.106606
 O         3.384490        -0.952569        -1.300482
 C         2.085088        -0.413808        -1.447385
 H        -0.359821        -0.520390        -0.661495
 H        -0.372083         0.429559         0.921767
 H        -0.156412         1.325290        -0.605354
 H         2.780741         1.890510        -0.696011
 H         2.168209         1.989513         1.091356
 H         4.486545         1.092136         1.295962
 H         3.559363        -1.401100         1.942522
 H         5.105432        -1.062999        -0.037383
 H         2.152016         0.357533        -2.291501
 H         1.366955        -1.231605        -1.807244
