19
Iteration:   102charge 0 multiplicity 1
 C         0.121075         0.361868        -0.055222
 C         1.576216         0.111914        -0.134142
 C         2.397942         1.281926         0.379588
 C         3.701871         0.496040         0.764435
 C         3.142165        -0.841487         1.149160
 O         1.753584        -0.940706         0.841271
 C         4.076753        -0.739095        -0.128046
 O         3.534789        -0.787854        -1.459534
 C         2.153360        -0.258426        -1.494533
 H        -0.261595         0.599932        -0.964477
 H        -0.407718        -0.488543         0.331332
 H        -0.003136         1.211427         0.648936
 H         2.596554         1.959337        -0.421338
 H         2.010689         1.863712         1.227547
 H         4.457641         1.050935         1.363669
 H         3.481629        -1.414180         2.009291
 H         5.112866        -1.233905        -0.118480
 H         2.184597         0.556253        -2.202356
 H         1.597087        -1.063964        -1.925424
