19
Iteration:    77charge 0 multiplicity 1
 C        -0.079187         0.328162        -0.128347
 C         1.563953         0.221849        -0.155635
 C         2.504204         1.314478         0.443907
 C         3.764306         0.511871         0.844532
 C         3.249038        -0.952834         1.056417
 O         1.836942        -0.981292         0.774173
 C         4.062745        -0.599062        -0.132848
 O         3.386939        -0.916718        -1.298059
 C         2.170349        -0.187781        -1.525831
 H        -0.444513        -0.341773        -0.908809
 H        -0.507869        -0.015176         0.841193
 H        -0.351831         1.379608        -0.262900
 H         2.748147         2.048558        -0.300382
 H         2.072227         1.882885         1.257973
 H         4.626108         0.930735         1.397708
 H         3.676719        -1.606797         1.846105
 H         5.145320        -0.882176        -0.219067
 H         2.465076         0.601063        -2.247413
 H         1.576123        -0.934705        -2.011898
