19
Iteration:   872
 C         0.072286         0.418842        -0.118071
 C         1.546903         0.155030        -0.116642
 C         2.412772         1.322705        -0.150490
 C         3.703736         0.774019         0.326536
 C         3.284123        -0.367401         1.178530
 O         1.976530        -0.634274         1.023930
 C         4.042713        -0.679239        -0.058320
 O         3.316523        -1.457447        -0.947152
 C         2.090382        -0.771511        -1.319745
 H        -0.284760         0.441046        -1.140144
 H        -0.366936        -0.250138         0.542948
 H        -0.035227         1.319902         0.431824
 H         2.443739         1.712692        -1.242489
 H         2.020550         2.152048         0.445276
 H         4.550497         1.406007         0.609347
 H         3.682315        -0.749831         2.207046
 H         5.084570        -0.908802        -0.053646
 H         2.465447        -0.143737        -2.191953
 H         1.330340        -1.413166        -1.880906
