19
Iteration:  3446charge 0 multiplicity 1
 C         0.031922         0.420737        -0.196772
 C         1.508985         0.028480        -0.179548
 C         2.285281         0.331671        -1.484561
 C         3.697691         0.368563        -0.912165
 C         3.587874         0.753654         0.568990
 O         2.218018         0.751258         0.915426
 C         4.005714        -0.624748         0.205067
 O         3.238721        -1.711338         0.483473
 C         1.879286        -1.602550         0.193397
 H        -0.106253         1.053078         0.661300
 H        -0.132820         1.091401        -1.154085
 H        -0.675947        -0.447680        -0.259365
 H         2.171610        -0.488789        -2.230798
 H         2.043759         1.329032        -1.915814
 H         4.511399         0.736477        -1.519358
 H         4.207050         1.412058         1.131009
 H         5.105233        -0.802781         0.309453
 H         1.625372        -2.184537        -0.796594
 H         1.403728        -2.074260         0.953880
