19
Iteration:  4437charge 0 multiplicity 1
 C         0.020681         0.337973        -0.226653
 C         1.513511         0.028480        -0.094024
 C         2.182900         0.007631        -1.475788
 C         3.691311         0.000793        -1.132814
 C         3.601269         0.855479         0.196926
 O         2.259236         1.026019         0.671762
 C         4.057278        -0.574340         0.236211
 O         3.275771        -1.552176         0.873817
 C         1.881622        -1.429647         0.460492
 H        -0.495777        -0.533992        -0.663892
 H        -0.398531         0.313446         0.788390
 H        -0.050382         1.255218        -0.697820
 H         1.801480        -0.946108        -1.903125
 H         2.024866         0.936811        -2.131066
 H         4.362847         0.121615        -1.940364
 H         4.333440         1.614829         0.631792
 H         5.112096        -0.685635         0.429579
 H         1.644145        -2.232422        -0.220271
 H         1.150707        -1.752047         1.299494
