19
Iteration:   423
 C        -0.026196         0.378477        -0.225023
 C         1.556156         0.112988        -0.136954
 C         2.476694         1.348742         0.142719
 C         3.813438         0.658349         0.597849
 C         3.262481        -0.710787         1.155099
 O         1.842147        -0.665438         1.072667
 C         4.106937        -0.711537        -0.110229
 O         3.406134        -1.078582        -1.339051
 C         2.066260        -0.616237        -1.341834
 H        -0.426396         0.463392        -1.267149
 H        -0.526333        -0.572732         0.197515
 H        -0.279971         1.068333         0.479496
 H         2.671459         2.059839        -0.687932
 H         2.062817         1.913466         0.924870
 H         4.569577         1.153437         1.143981
 H         3.626354        -1.100397         2.089715
 H         5.126473        -1.079841        -0.020894
 H         2.174683         0.215926        -2.070820
 H         1.376922        -1.398093        -1.663776
