19
Iteration:  3667charge 0 multiplicity 1
 C         0.091883         0.367450        -0.139267
 C         1.559690         0.017643        -0.142530
 C         2.285921         0.104124        -1.482646
 C         3.708566         0.303936        -1.004355
 C         3.580419         0.822372         0.439751
 O         2.210100         0.795231         0.816577
 C         4.069538        -0.576003         0.235563
 O         3.195753        -1.677956         0.579015
 C         1.806927        -1.427511         0.240954
 H         0.046984         1.500448        -0.317507
 H        -0.452779        -0.243178        -0.878123
 H        -0.366247         0.101154         0.850317
 H         2.241149        -0.891613        -2.072678
 H         1.776791         0.895861        -2.051224
 H         4.454490         0.777208        -1.660877
 H         4.115880         1.637630         0.781528
 H         5.161259        -0.838663         0.313297
 H         1.483935        -2.170874        -0.451746
 H         1.234026        -1.611660         1.278459
