19
Iteration:  1774charge 0 multiplicity 1
 C         0.005593         0.326258        -0.279505
 C         1.536808         0.062314        -0.154287
 C         2.524856         1.183081        -0.617591
 C         3.860105         0.766753        -0.016974
 C         3.432178        -0.014017         1.148941
 O         1.946258        -0.003704         1.248453
 C         4.074832        -0.714439        -0.016845
 O         3.266857        -1.554983        -0.790416
 C         1.893502        -1.271808        -0.816931
 H        -0.211833         1.295473        -0.730310
 H        -0.330957        -0.487965        -0.977057
 H        -0.504520         0.200842         0.671116
 H         2.446148         1.346536        -1.680440
 H         2.259205         2.096472        -0.134894
 H         4.578417         1.543781         0.078440
 H         3.963629        -0.024523         2.058583
 H         5.055258        -1.225598         0.235058
 H         1.471329        -1.492526        -1.771868
 H         1.347922        -2.019025        -0.174834
