19
Iteration:  3004
 C        -0.029292         0.254306        -0.159027
 C         1.499939         0.029457        -0.183265
 C         2.359108         0.619993        -1.372786
 C         3.773395         0.579651        -0.666072
 C         3.588440         0.560023         0.765640
 O         2.178092         0.562613         1.028092
 C         4.089310        -0.686751         0.142048
 O         3.200515        -1.743368         0.239737
 C         1.838339        -1.451635        -0.215759
 H        -0.380234         0.138469         0.906954
 H        -0.249914         1.249253        -0.501614
 H        -0.494711        -0.517207        -0.732529
 H         2.336490         0.022989        -2.247556
 H         2.139413         1.774608        -1.486938
 H         4.479161         1.222049        -1.193557
 H         4.184600         1.123741         1.546050
 H         5.107384        -0.981159         0.246975
 H         1.715321        -1.763817        -1.190547
 H         1.096258        -1.873679         0.526230
