19
Iteration:   929
 C         0.066722         0.324499        -0.271766
 C         1.566909         0.150734        -0.108494
 C         2.552242         1.323022        -0.270105
 C         3.832271         0.701162         0.391551
 C         3.221190        -0.499639         1.232146
 O         1.829769        -0.384118         1.266287
 C         4.040077        -0.749631        -0.080086
 O         3.429424        -1.130490        -1.319409
 C         1.966848        -1.012049        -1.071854
 H        -0.160443         1.400473        -0.395146
 H        -0.438345        -0.198873        -0.986049
 H        -0.440647         0.238126         0.691085
 H         2.553006         1.624719        -1.334287
 H         2.109617         2.121940         0.349349
 H         4.646234         1.235544         0.936068
 H         3.696943        -0.679053         2.139963
 H         5.073616        -1.096232        -0.015569
 H         1.578079        -1.033877        -2.084441
 H         1.697657        -1.886851        -0.460165
