19
Iteration:  1424charge 0 multiplicity 1
 C         0.057234         0.307218        -0.225693
 C         1.531831         0.137554        -0.184922
 C         2.412039         1.364704        -0.381896
 C         3.826793         0.826630        -0.023304
 C         3.425027        -0.104314         1.173985
 O         1.967470        -0.208064         1.127219
 C         4.054627        -0.696434        -0.020166
 O         3.264638        -1.729647        -0.652135
 C         1.964763        -1.119740        -1.091305
 H        -0.266602         1.311526        -0.396557
 H        -0.485261        -0.374889        -0.965870
 H        -0.240114         0.152319         0.868704
 H         2.346119         1.760042        -1.513368
 H         2.269047         2.226987         0.278409
 H         4.577507         1.541219         0.168368
 H         3.758796        -0.004593         2.181449
 H         5.154987        -1.002785        -0.070635
 H         2.083419        -0.952696        -2.187925
 H         1.237285        -1.905337        -1.058086
