19
Iteration:  1639charge 0 multiplicity 1
 C         0.000200         0.279141        -0.229772
 C         1.558071         0.103012        -0.198824
 C         2.427464         1.303690        -0.587425
 C         3.794179         0.805882        -0.038992
 C         3.503573         0.006718         1.172080
 O         2.071126        -0.218297         1.197868
 C         4.081690        -0.737527        -0.049669
 O         3.127952        -1.715154        -0.468591
 C         1.967055        -1.087630        -1.073325
 H        -0.647571        -0.649648        -0.189937
 H        -0.551047         0.953194         0.436380
 H        -0.130902         0.668150        -1.291775
 H         2.322589         1.676034        -1.579734
 H         2.118759         2.269722        -0.015170
 H         4.604352         1.556751        -0.005922
 H         3.900460         0.175309         2.181692
 H         5.119016        -1.049230        -0.123508
 H         2.339820        -0.607682        -1.956930
 H         1.170001        -1.803979        -1.175177
