19
Iteration:  3817charge 0 multiplicity 1
 C         0.079096         0.436359        -0.128756
 C         1.500772        -0.149945        -0.179637
 C         2.235948         0.140725        -1.527472
 C         3.712601         0.240486        -1.046096
 C         3.578320         0.844307         0.386008
 O         2.247913         0.804810         0.671448
 C         4.119580        -0.549860         0.203785
 O         3.218427        -1.624152         0.713688
 C         1.766979        -1.491538         0.412892
 H        -0.679854        -0.290656         0.250303
 H         0.282849         1.152195         0.705539
 H        -0.312532         0.920458        -0.955875
 H         2.080954        -0.511686        -2.296118
 H         2.015220         1.098699        -2.020820
 H         4.565622         0.497399        -1.721124
 H         4.111737         1.647912         0.805898
 H         5.155086        -0.761435         0.630027
 H         1.476717        -2.291726        -0.493802
 H         1.346112        -1.625101         1.372078
