19
Iteration:  3268charge 0 multiplicity 1
 C         0.017613         0.257479        -0.141773
 C         1.502944         0.014968        -0.184691
 C         2.403250         0.445302        -1.445335
 C         3.809900         0.462479        -0.876426
 C         3.536847         0.668773         0.651633
 O         2.128627         0.717808         0.954087
 C         4.012494        -0.672376         0.181845
 O         3.219924        -1.759099         0.348517
 C         1.858000        -1.405257         0.096247
 H        -0.455820        -0.523369         0.501383
 H        -0.145287         1.117806         0.457439
 H        -0.332649         0.352720        -1.243916
 H         2.273035        -0.196918        -2.233672
 H         2.122344         1.485960        -1.860375
 H         4.638126         0.743638        -1.512682
 H         4.165894         1.296483         1.377654
 H         5.072776        -0.801340         0.280791
 H         1.566895        -1.921541        -0.965990
 H         1.245685        -1.779074         0.869718
