19
Iteration:  3209
 C         0.078085         0.400253        -0.209127
 C         1.486909         0.043550        -0.209933
 C         2.299504         0.594893        -1.383520
 C         3.709890         0.378602        -0.849614
 C         3.519607         0.658022         0.668604
 O         2.112274         0.682391         0.980512
 C         4.077647        -0.645370         0.190798
 O         3.312500        -1.848530         0.371990
 C         1.890801        -1.533806        -0.004522
 H        -0.222917         0.973841         0.742729
 H        -0.243977         0.878283        -1.212085
 H        -0.563099        -0.421344        -0.019526
 H         1.994557         0.049101        -2.365356
 H         2.118720         1.642371        -1.500888
 H         4.467740         0.917054        -1.473893
 H         4.081942         1.288305         1.332328
 H         5.165585        -0.781739         0.334666
 H         1.717560        -2.254177        -0.859025
 H         1.361656        -2.022408         0.838517
