19
Iteration:  1596charge 0 multiplicity 1
 C         0.030791         0.376345        -0.142965
 C         1.493190         0.033869        -0.187665
 C         2.484334         1.242833        -0.598909
 C         3.836936         0.770519         0.046240
 C         3.379449        -0.016765         1.179887
 O         1.982702        -0.103797         1.178271
 C         4.037670        -0.720555         0.068940
 O         3.314654        -1.612181        -0.771797
 C         1.945368        -1.235502        -1.051181
 H        -0.389881         0.059890         0.862492
 H        -0.211297         1.453474        -0.121236
 H        -0.595005        -0.071655        -0.961690
 H         2.511943         1.460203        -1.631924
 H         1.975013         2.149654        -0.113519
 H         4.737951         1.367614         0.215109
 H         3.741986         0.153265         2.182381
 H         5.087169        -1.060023         0.073820
 H         1.917623        -0.944435        -2.089858
 H         1.393467        -2.179562        -0.828121
