19
Iteration:  1880
 C        -0.005751         0.282942        -0.281236
 C         1.514485         0.007343        -0.114583
 C         2.528145         1.148214        -0.692057
 C         3.850244         0.837792        -0.053716
 C         3.455267         0.025504         1.198005
 O         2.044952        -0.023822         1.223946
 C         4.073126        -0.655623        -0.064708
 O         3.198003        -1.596593        -0.634416
 C         1.850528        -1.261200        -0.818693
 H        -0.615724        -0.071324         0.501484
 H        -0.118086         1.399878        -0.374170
 H        -0.229851        -0.115007        -1.320829
 H         2.607333         1.043172        -1.756951
 H         2.192029         2.209524        -0.294607
 H         4.646363         1.535168        -0.178535
 H         3.803152        -0.074827         2.172964
 H         5.141767        -0.998921        -0.104583
 H         1.643228        -1.258921        -1.909067
 H         1.267483        -2.013456        -0.369787
