19
Iteration:  3033
 C         0.150043         0.343202        -0.070903
 C         1.574487        -0.057586        -0.225142
 C         2.348210         0.748111        -1.342511
 C         3.738833         0.493163        -0.749719
 C         3.503289         0.687017         0.747449
 O         2.100162         0.576303         0.957647
 C         3.958545        -0.659962         0.246227
 O         3.255667        -1.801020         0.256574
 C         1.844463        -1.642022        -0.187009
 H        -0.268393        -0.493970         0.501129
 H         0.026726         1.340608         0.542788
 H        -0.318653         0.450387        -1.122766
 H         2.231609         0.482603        -2.462525
 H         2.152562         1.851967        -1.390483
 H         4.580155         0.752675        -1.317354
 H         3.970200         1.450189         1.349539
 H         5.032156        -0.784049         0.219227
 H         1.754977        -2.000075        -1.357426
 H         1.150329        -2.039228         0.479942
