19
Iteration:  4997
 C         0.052930         0.251437        -0.105300
 C         1.508832        -0.002926        -0.127823
 C         2.307189        -0.073541        -1.535371
 C         3.723892         0.081124        -1.052983
 C         3.591847         0.856329         0.253283
 O         2.198327         1.078382         0.511714
 C         4.088839        -0.654684         0.200283
 O         3.215581        -1.626610         0.741016
 C         1.807057        -1.271459         0.615218
 H        -0.429094         0.578779        -1.050380
 H        -0.472470        -0.607533         0.381616
 H        -0.056606         1.182359         0.606940
 H         2.035278        -0.960826        -2.100130
 H         1.968177         0.845909        -2.089873
 H         4.631159         0.334790        -1.692225
 H         4.238939         1.706362         0.446428
 H         5.169812        -0.811590         0.504245
 H         1.317965        -2.130556         0.151730
 H         1.430881        -1.217913         1.711131
