19
Iteration:  1973charge 0 multiplicity 1
 C         0.140223         0.393232        -0.284998
 C         1.582049         0.103882        -0.148060
 C         2.481224         1.122018        -0.810321
 C         3.768376         0.819578        -0.174137
 C         3.383865         0.064146         1.160764
 O         2.017607        -0.124635         1.341088
 C         4.032148        -0.656928         0.042257
 O         3.257583        -1.574786        -0.655390
 C         1.847399        -1.332466        -0.751389
 H        -0.239609        -0.142352        -1.202121
 H        -0.250386        -0.222162         0.497093
 H        -0.131340         1.411120        -0.192609
 H         2.392925         0.858479        -1.928923
 H         2.134728         2.117005        -0.579837
 H         4.598659         1.542032        -0.244056
 H         3.906015         0.169551         2.096106
 H         5.038712        -0.968736         0.070264
 H         1.383024        -1.242500        -1.810942
 H         1.359825        -2.144183        -0.210484
