19
Iteration:  3216charge 0 multiplicity 1
 C         0.048338         0.374536        -0.185232
 C         1.533204        -0.016650        -0.177429
 C         2.312586         0.594663        -1.340781
 C         3.767971         0.369803        -0.864969
 C         3.528271         0.680967         0.666103
 O         2.129724         0.685291         0.947812
 C         4.037442        -0.604528         0.150111
 O         3.264857        -1.825800         0.396889
 C         1.881550        -1.553481        -0.051569
 H        -0.156275         0.888501         0.695345
 H        -0.290109         1.058147        -0.974993
 H        -0.631160        -0.542651        -0.277530
 H         1.875243        -0.072082        -2.209454
 H         2.277072         1.691101        -1.487669
 H         4.540179         0.885917        -1.442481
 H         4.148671         1.364945         1.373640
 H         5.073337        -0.697386         0.374489
 H         1.730902        -2.150793        -0.898940
 H         1.230058        -1.957500         0.865762
