19
Iteration:  4206charge 0 multiplicity 1
 C         0.043414         0.235869        -0.167188
 C         1.536106        -0.010797        -0.084489
 C         2.283092         0.063046        -1.443581
 C         3.748134         0.219788        -1.066249
 C         3.682293         0.895518         0.302403
 O         2.324174         0.917998         0.674677
 C         4.068173        -0.640492         0.114369
 O         3.118266        -1.500203         0.761422
 C         1.735156        -1.478566         0.481010
 H        -0.332152         1.007992         0.609609
 H        -0.358939         0.687823        -1.231941
 H        -0.461928        -0.752279        -0.176807
 H         2.046763        -0.878269        -2.029555
 H         1.960351         0.895196        -2.057735
 H         4.336705         0.552346        -1.937629
 H         4.431471         1.664913         0.662916
 H         5.033931        -1.047997         0.112527
 H         1.216780        -2.268460        -0.182598
 H         1.320096        -1.570992         1.513064
