19
Iteration:  1103charge 0 multiplicity 1
 C         0.082967         0.425186        -0.129127
 C         1.572508         0.068890        -0.228091
 C         2.494496         1.311611        -0.347015
 C         3.802791         0.787129         0.248362
 C         3.270729        -0.254349         1.252619
 O         1.897751        -0.426473         1.115903
 C         4.058142        -0.713098         0.030663
 O         3.399328        -1.367260        -1.046158
 C         1.920454        -1.063843        -1.139759
 H        -0.700262         0.033330        -0.891896
 H        -0.226700        -0.071104         0.821146
 H        -0.155805         1.494450         0.044804
 H         2.555052         1.486912        -1.492316
 H         2.163922         2.259295         0.100948
 H         4.656409         1.378474         0.571734
 H         3.728931        -0.381385         2.285957
 H         5.162095        -1.095882         0.099187
 H         1.690157        -0.743265        -2.138141
 H         1.366899        -2.058271        -0.917283
