19
Iteration:  1406charge 0 multiplicity 1
 C        -0.015905         0.321801        -0.308437
 C         1.609633         0.058835        -0.197930
 C         2.471502         1.305020        -0.463045
 C         3.806089         0.833077         0.113553
 C         3.460027        -0.080675         1.188533
 O         2.034252        -0.205144         1.228376
 C         4.046634        -0.714656        -0.034816
 O         3.214532        -1.587099        -0.765918
 C         1.905455        -1.145074        -1.006712
 H        -0.125146         1.255509        -0.918578
 H        -0.407803        -0.530447        -0.919596
 H        -0.511737         0.280474         0.677380
 H         2.449646         1.772798        -1.447627
 H         1.928803         2.002952         0.148622
 H         4.689236         1.473990        -0.049772
 H         3.874601        -0.180642         2.167073
 H         5.033886        -1.025343         0.034560
 H         1.778534        -0.909581        -2.077070
 H         1.327920        -2.060983        -0.639712
