19
Iteration:  4180charge 0 multiplicity 1
 C         0.071761         0.383165        -0.197066
 C         1.527472         0.002502        -0.132181
 C         2.185998        -0.025480        -1.539918
 C         3.711785         0.154891        -1.065287
 C         3.546912         0.809360         0.345144
 O         2.219403         0.977422         0.724460
 C         4.036835        -0.598606         0.227799
 O         3.282493        -1.671588         0.625913
 C         1.902466        -1.367066         0.546321
 H        -0.259660         0.821544         0.686472
 H         0.010346         1.140624        -0.910911
 H        -0.572418        -0.438638        -0.612525
 H         1.939972        -1.063722        -1.843448
 H         1.768285         0.701904        -2.239378
 H         4.458534         0.576752        -1.752136
 H         4.297866         1.585214         0.506423
 H         5.124039        -0.738530         0.504152
 H         1.350369        -2.144276         0.037709
 H         1.480152        -1.259920         1.687904
