19
Iteration:  4937
 C         0.086759         0.353510        -0.274640
 C         1.520854         0.000338         0.020952
 C         2.222943        -0.256481        -1.416358
 C         3.690377         0.168127        -1.099897
 C         3.573915         0.791500         0.267196
 O         2.196180         1.227805         0.562768
 C         4.065087        -0.609016         0.147929
 O         3.246394        -1.712880         0.594793
 C         1.892070        -1.285345         0.754320
 H         0.016432         1.308387        -0.818908
 H        -0.335028        -0.345326        -1.038024
 H        -0.510147         0.289120         0.555832
 H         2.111057        -1.378180        -1.680802
 H         1.883860         0.383303        -2.251309
 H         4.409309         0.401411        -1.858124
 H         4.213168         1.576438         0.788771
 H         4.986117        -0.671866         0.639731
 H         1.240871        -2.216769         0.378473
 H         1.703935        -1.147436         1.850912
