19
Iteration:   860charge 0 multiplicity 1
 C         0.082244         0.496775        -0.026730
 C         1.562045         0.074925        -0.159917
 C         2.396607         1.392448        -0.145769
 C         3.704244         0.814381         0.246997
 C         3.316237        -0.447166         1.225365
 O         1.914003        -0.703435         0.964999
 C         4.015098        -0.615062        -0.039383
 O         3.328514        -1.529413        -0.909820
 C         2.173453        -0.720198        -1.381488
 H        -0.467321         0.204928        -0.903393
 H        -0.420506        -0.095178         0.720339
 H        -0.080922         1.537752        -0.003845
 H         2.341672         1.847437        -1.206479
 H         2.073120         2.111989         0.630940
 H         4.567920         1.376215         0.546678
 H         3.615329        -0.538848         2.326605
 H         5.108436        -0.764226        -0.026200
 H         2.385329        -0.014534        -2.243940
 H         1.413628        -1.571183        -1.499770
