19
Iteration:  4540charge 0 multiplicity 1
 C         0.134464         0.322917        -0.231150
 C         1.584661        -0.009947        -0.104279
 C         2.319701        -0.278006        -1.503296
 C         3.668398         0.189609        -1.083386
 C         3.538371         0.880178         0.274545
 O         2.182118         1.065687         0.600068
 C         4.049303        -0.593537         0.182466
 O         3.176232        -1.666152         0.552576
 C         1.817523        -1.214599         0.850912
 H         0.163997         1.320060        -0.658907
 H        -0.282663        -0.314474        -0.955037
 H        -0.362794         0.138513         0.776634
 H         2.255635        -1.355930        -1.711172
 H         1.806044         0.192651        -2.348714
 H         4.476126         0.534569        -1.817378
 H         4.177788         1.668845         0.581851
 H         5.106204        -0.834997         0.468748
 H         1.143164        -2.061196         0.553586
 H         1.853088        -0.853839         1.918128
