19
Iteration:    58
 C         0.126777         0.335072        -0.208059
 C         1.597235         0.154675        -0.086822
 C         2.425099         1.278881         0.493345
 C         3.695658         0.511886         0.805488
 C         3.250633        -0.886720         1.096494
 O         1.891984        -0.958470         0.695555
 C         4.107747        -0.660551        -0.156307
 O         3.306792        -0.906696        -1.319100
 C         2.080131        -0.161615        -1.449450
 H        -0.229860        -0.596872        -0.358289
 H        -0.243294         0.745021         0.746611
 H        -0.139894         1.000842        -1.073785
 H         2.554078         2.123309        -0.144404
 H         2.046945         1.592234         1.489650
 H         4.477843         0.977898         1.479448
 H         3.458358        -1.481454         2.027213
 H         5.231710        -1.012972        -0.234258
 H         2.247601         0.753703        -2.031463
 H         1.430108        -0.785625        -2.028435
