19
Iteration:  4658
 C         0.098338         0.350125        -0.128904
 C         1.559960        -0.105353        -0.146696
 C         2.195910        -0.148121        -1.583083
 C         3.641677         0.011956        -1.122635
 C         3.595540         0.874760         0.142394
 O         2.282441         0.957675         0.568499
 C         4.042025        -0.522988         0.282206
 O         3.260156        -1.412606         0.937905
 C         1.819346        -1.386565         0.590588
 H        -0.455793         0.535073         0.886388
 H         0.019597         1.335577        -0.491536
 H        -0.408158        -0.368713        -0.814295
 H         1.846031        -1.018449        -2.146022
 H         1.773229         0.735995        -2.204337
 H         4.425690         0.182273        -1.886527
 H         4.215531         1.750163         0.330470
 H         5.064687        -0.918520         0.223410
 H         1.554057        -2.262846        -0.001622
 H         1.279186        -1.191588         1.490211
