19
Iteration:  3086charge 0 multiplicity 1
 C         0.047771         0.269258        -0.292608
 C         1.571244        -0.029959        -0.150344
 C         2.376617         0.521229        -1.344967
 C         3.782716         0.611495        -0.727551
 C         3.560080         0.674568         0.820116
 O         2.203429         0.601929         1.111876
 C         4.032464        -0.656035         0.126954
 O         3.161838        -1.767013         0.039476
 C         1.786438        -1.457865         0.039144
 H        -0.361303        -0.524256        -0.892140
 H        -0.443012         0.203779         0.728510
 H        -0.213381         1.282355        -0.735398
 H         2.356649        -0.209324        -2.261052
 H         2.038838         1.389873        -1.767895
 H         4.573974         1.128069        -1.214289
 H         4.122404         1.333970         1.477958
 H         5.062097        -0.986439         0.171428
 H         1.300857        -2.087341        -0.713666
 H         1.254515        -1.713638         1.022735
