19
Iteration:  3668
 C         0.097336         0.365090        -0.145835
 C         1.550009         0.011547        -0.139266
 C         2.286701         0.107369        -1.475834
 C         3.705265         0.300935        -1.004060
 C         3.586120         0.822631         0.437004
 O         2.214240         0.799489         0.816977
 C         4.066297        -0.571689         0.244491
 O         3.193875        -1.672959         0.568463
 C         1.804724        -1.423522         0.242194
 H         0.048750         1.502872        -0.297164
 H        -0.437022        -0.214115        -0.867959
 H        -0.364996         0.062707         0.854746
 H         2.248485        -0.889710        -2.037389
 H         1.782092         0.833541        -2.068783
 H         4.452039         0.753701        -1.661620
 H         4.124577         1.638529         0.785696
 H         5.151353        -0.844936         0.316302
 H         1.467330        -2.205496        -0.482165
 H         1.264316        -1.631856         1.277179
