19
Iteration:   980charge 0 multiplicity 1
 C         0.155629         0.537290        -0.113740
 C         1.556476         0.051215        -0.123806
 C         2.559255         1.211749        -0.402346
 C         3.688946         0.733869         0.346915
 C         3.268130        -0.377387         1.263180
 O         1.839643        -0.553148         1.185812
 C         4.081155        -0.663137        -0.000689
 O         3.387946        -1.101134        -1.208415
 C         1.945617        -1.122392        -1.109763
 H        -0.131322         1.115447         0.774219
 H        -0.131867         1.091576        -1.107829
 H        -0.542914        -0.308520        -0.168510
 H         2.915048         1.484013        -1.452566
 H         2.145275         2.171707        -0.077338
 H         4.452444         1.498252         0.566131
 H         3.739544        -0.510384         2.242334
 H         5.047427        -1.039827         0.102542
 H         1.705473        -1.020904        -2.189152
 H         1.511629        -2.124482        -0.790565
