19
Iteration:  1020charge 0 multiplicity 1
 C         0.036345         0.263041        -0.184926
 C         1.593712         0.146122        -0.134037
 C         2.507989         1.425737        -0.227107
 C         3.802567         0.768626         0.260433
 C         3.370684        -0.312523         1.235866
 O         1.874580        -0.387722         1.153841
 C         4.047933        -0.762714        -0.096153
 O         3.264130        -1.474057        -0.972572
 C         2.043611        -0.889195        -1.272253
 H        -0.409517        -0.073437         0.744060
 H        -0.361220         1.315896        -0.510716
 H        -0.410402        -0.443483        -0.948139
 H         2.366773         1.935152        -1.146580
 H         2.245558         1.945736         0.735673
 H         4.704697         1.347222         0.327893
 H         3.758657        -0.329842         2.317666
 H         5.075967        -1.177238        -0.084784
 H         1.979805        -0.331520        -2.229918
 H         1.412013        -1.730085        -1.230187
