19
Iteration:  2882
 C        -0.032205         0.263992        -0.217166
 C         1.520561         0.013094        -0.138365
 C         2.422803         0.670410        -1.257182
 C         3.841672         0.604206        -0.671447
 C         3.534054         0.575890         0.861148
 O         2.137538         0.594522         1.114680
 C         4.043862        -0.663306         0.153350
 O         3.235188        -1.805189        -0.074437
 C         1.809186        -1.505486        -0.177584
 H        -0.362668         0.267633        -1.252414
 H        -0.607509        -0.561380         0.299533
 H        -0.103969         1.210900         0.217810
 H         2.322509         0.109033        -2.109460
 H         2.048567         1.766148        -1.413042
 H         4.672397         1.249006        -0.958574
 H         4.040462         1.083525         1.654132
 H         5.075297        -0.979422         0.472525
 H         1.391449        -1.901665        -1.070842
 H         1.304034        -2.014289         0.762943
