19
Iteration:   325charge 0 multiplicity 1
 C         0.056630         0.384967        -0.152137
 C         1.576720         0.123635        -0.161273
 C         2.552523         1.281856         0.115030
 C         3.817305         0.612321         0.707733
 C         3.186360        -0.772810         1.182036
 O         1.805170        -0.775663         0.977618
 C         4.066759        -0.704928        -0.053205
 O         3.413267        -0.813889        -1.363828
 C         2.023111        -0.632982        -1.404847
 H        -0.214538         0.627111         0.958056
 H        -0.374407         1.132799        -0.911355
 H        -0.310388        -0.568234        -0.392873
 H         2.696881         1.831866        -0.911837
 H         2.241575         2.042522         0.850644
 H         4.543293         1.177783         1.297843
 H         3.529448        -1.201212         2.087098
 H         5.109044        -1.166562        -0.031595
 H         1.756315         0.037958        -2.241738
 H         1.590420        -1.641510        -1.484975
