19
Iteration:  3727
 C         0.045172         0.251655        -0.239839
 C         1.520224        -0.015478        -0.207507
 C         2.329172         0.169430        -1.561113
 C         3.713233         0.273917        -0.942248
 C         3.556427         0.703489         0.642051
 O         2.174988         1.039845         0.723778
 C         3.987134        -0.656399         0.167782
 O         3.190264        -1.802765         0.287608
 C         1.967143        -1.303901         0.642383
 H        -0.217409         0.946299         0.501670
 H        -0.345407         0.690955        -1.195242
 H        -0.476964        -0.643509         0.066341
 H         2.185787        -0.567801        -2.254286
 H         1.926507         1.120346        -1.918550
 H         4.574503         0.612697        -1.524353
 H         4.235285         1.378248         1.285657
 H         5.017611        -0.882732         0.368029
 H         1.147315        -2.239834         0.724384
 H         2.107310        -0.904405         1.617691
