19
Iteration:   666
 C         0.040116         0.216493        -0.169418
 C         1.532870         0.200558        -0.168216
 C         2.402382         1.402793         0.033727
 C         3.843626         0.743191         0.422180
 C         3.351239        -0.525673         1.189276
 O         1.901803        -0.563192         1.079482
 C         3.996907        -0.749181        -0.102753
 O         3.250767        -1.443540        -1.061751
 C         2.179783        -0.524881        -1.425319
 H        -0.237855         0.645061        -1.134490
 H        -0.356755        -0.739618        -0.006812
 H        -0.460848         0.872102         0.625367
 H         2.419425         2.054687        -0.842215
 H         2.055546         1.932732         0.854364
 H         4.617245         1.380545         0.825030
 H         3.718190        -0.913979         2.105315
 H         5.093332        -1.075321        -0.078133
 H         2.551148         0.199518        -2.201738
 H         1.409232        -1.076510        -1.931094
