19
Iteration:  4690
 C        -0.064900         0.298533        -0.220874
 C         1.541470        -0.029844        -0.022808
 C         2.237621        -0.198978        -1.395907
 C         3.712684         0.030329        -1.158497
 C         3.599026         0.875998         0.184240
 O         2.203268         1.220018         0.464476
 C         4.108129        -0.640481         0.219309
 O         3.328583        -1.622509         0.803788
 C         1.842837        -1.279400         0.701965
 H        -0.762990        -0.297167         0.532783
 H        -0.075840         1.361826        -0.233721
 H        -0.416892         0.098149        -1.253630
 H         1.989608        -1.154269        -1.811442
 H         1.863719         0.647163        -2.064214
 H         4.496977         0.212026        -1.926574
 H         4.233750         1.681442         0.566871
 H         5.140517        -1.016002         0.310372
 H         1.335499        -2.187066         0.123809
 H         1.393474        -1.189111         1.662232
