19
Iteration:  4885
 C         0.040677         0.282743        -0.097246
 C         1.545709        -0.022761        -0.157136
 C         2.297569        -0.088767        -1.584334
 C         3.703840         0.086102        -1.174078
 C         3.620933         0.780425         0.214911
 O         2.214161         1.008197         0.515533
 C         4.010160        -0.580953         0.196691
 O         3.233403        -1.569090         0.884443
 C         1.846401        -1.239932         0.678456
 H        -0.078339         1.417231         0.291554
 H        -0.467674         0.328689        -1.026564
 H        -0.405605        -0.467838         0.562830
 H         2.042441        -1.129171        -1.857427
 H         1.958998         0.686940        -2.333731
 H         4.538379         0.311832        -1.770680
 H         4.178287         1.622408         0.693820
 H         5.031597        -0.793521         0.226782
 H         1.404793        -2.064112         0.138616
 H         1.279213        -1.156000         1.633228
