19
Iteration:  1551
 C         0.102125         0.354950        -0.294123
 C         1.592985         0.047735        -0.090002
 C         2.604092         1.109116        -0.687889
 C         3.744174         0.781502         0.136019
 C         3.328700        -0.109390         1.242242
 O         1.900678        -0.105087         1.284970
 C         4.023847        -0.768931         0.029209
 O         3.272657        -1.250070        -1.102616
 C         1.932897        -1.308704        -0.698881
 H        -0.521511         0.429765         0.743654
 H         0.019659         1.336293        -0.741691
 H        -0.349350        -0.301758        -1.071253
 H         2.742236         0.769907        -1.726631
 H         2.339359         2.229906        -0.734740
 H         4.466729         1.524397         0.248885
 H         3.819870        -0.157371         2.179202
 H         4.979169        -1.407762        -0.013364
 H         1.415899        -1.509627        -1.652381
 H         1.782708        -2.148094         0.073620
