19
Iteration:  1884charge 0 multiplicity 1
 C        -0.014482         0.296966        -0.278304
 C         1.511680         0.001973        -0.148640
 C         2.544040         1.149319        -0.695070
 C         3.844299         0.834656        -0.035393
 C         3.441598         0.019928         1.187785
 O         2.050752         0.003127         1.249185
 C         4.071741        -0.681718        -0.063080
 O         3.206839        -1.561476        -0.663776
 C         1.861696        -1.258849        -0.802242
 H        -0.759748        -0.254448         0.391787
 H        -0.239367         1.345326        -0.282086
 H        -0.269471        -0.042112        -1.236102
 H         2.634182         0.948172        -1.763805
 H         2.238493         2.123645        -0.388811
 H         4.665071         1.566863        -0.126591
 H         3.932952        -0.090965         2.228931
 H         5.094190        -1.098376        -0.067302
 H         1.575403        -1.455197        -1.940836
 H         1.298889        -2.102372        -0.289065
