19
Iteration:  4653charge 0 multiplicity 1
 C         0.093275         0.327512        -0.099650
 C         1.519692        -0.108898        -0.208944
 C         2.184186        -0.135178        -1.590166
 C         3.704547         0.019213        -1.128665
 C         3.623075         0.875766         0.143649
 O         2.261412         0.914138         0.596451
 C         4.081843        -0.520315         0.250275
 O         3.214513        -1.397460         0.956952
 C         1.833264        -1.333195         0.593508
 H        -0.342972         0.544714         0.845747
 H         0.073220         1.368497        -0.617383
 H        -0.565652        -0.368120        -0.623818
 H         1.850303        -1.045067        -2.123830
 H         1.831015         0.708453        -2.108898
 H         4.432527         0.137574        -1.925300
 H         4.198025         1.798064         0.278090
 H         5.097482        -0.902322         0.214542
 H         1.535870        -2.291563         0.022315
 H         1.224831        -1.329399         1.558799
