19
Iteration:  1331
 C         0.066390         0.448927        -0.110198
 C         1.574226         0.050690        -0.214684
 C         2.589969         1.125351        -0.614223
 C         3.804633         0.758710         0.196028
 C         3.248619        -0.143621         1.236487
 O         1.853567        -0.224933         1.200242
 C         4.015857        -0.687317         0.003712
 O         3.399119        -1.279039        -1.112203
 C         1.952271        -1.263370        -0.839152
 H        -0.447887        -0.051446        -0.964093
 H        -0.282657         0.003905         0.756610
 H         0.094967         1.502649        -0.194813
 H         2.561445         1.146398        -1.661601
 H         2.229442         2.187549        -0.366670
 H         4.609245         1.449374         0.475105
 H         3.642573        -0.412564         2.174632
 H         4.894926        -1.154464         0.284927
 H         1.392998        -1.603176        -1.761600
 H         1.655961        -2.122100        -0.195029
