19
Iteration:  4277charge 0 multiplicity 1
 C         0.008591         0.348824        -0.109212
 C         1.495891        -0.056771        -0.136155
 C         2.285966        -0.049437        -1.411832
 C         3.763492         0.226116        -1.053154
 C         3.674699         0.884794         0.324563
 O         2.250036         0.994071         0.596303
 C         4.094461        -0.561069         0.152326
 O         3.191977        -1.634069         0.710340
 C         1.773109        -1.476088         0.466917
 H        -0.162519         0.983967         0.779008
 H        -0.249361         0.920662        -0.946078
 H        -0.668932        -0.571988        -0.236197
 H         2.176908        -1.010534        -1.905376
 H         1.903354         0.775409        -2.097269
 H         4.405200         0.656864        -1.780333
 H         4.195564         1.751182         0.838407
 H         5.069709        -0.925195         0.462950
 H         1.382397        -2.243796        -0.279104
 H         1.149432        -1.510283         1.342768
