19
Iteration:  1674
 C         0.108044         0.262477        -0.141932
 C         1.587067         0.064445        -0.133990
 C         2.488015         1.335477        -0.703196
 C         3.811266         0.757106        -0.086431
 C         3.339867        -0.004694         1.203829
 O         1.951767        -0.101819         1.202172
 C         3.984169        -0.726642         0.053420
 O         3.289238        -1.678049        -0.722984
 C         1.948750        -1.159991        -0.957749
 H        -0.387519        -0.415384        -0.773921
 H        -0.360948         0.319037         0.903835
 H        -0.030705         1.292181        -0.614763
 H         2.480640         1.592414        -1.716340
 H         2.157167         2.097371         0.048319
 H         4.667202         1.545279        -0.110799
 H         3.738486         0.088669         2.264759
 H         4.964249        -1.086195         0.230807
 H         1.907253        -0.960478        -2.025629
 H         1.219331        -1.993040        -0.815005
