19
Iteration:  3146
 C         0.014037         0.272674        -0.174279
 C         1.555568         0.048368        -0.136007
 C         2.385454         0.397390        -1.387224
 C         3.782895         0.534811        -0.682271
 C         3.494166         0.659472         0.764570
 O         2.148202         0.756198         0.973373
 C         4.039228        -0.681467         0.241267
 O         3.242179        -1.810036        -0.121179
 C         1.840212        -1.432522         0.148824
 H        -0.201692         1.038564        -1.058550
 H        -0.578017        -0.628204        -0.445190
 H        -0.439098         0.712975         0.728755
 H         2.509326        -0.449729        -1.977054
 H         2.135628         1.412786        -1.960698
 H         4.537576         1.267976        -1.067078
 H         4.005041         1.202950         1.510166
 H         5.016988        -1.098825         0.583905
 H         1.192032        -2.200630        -0.561448
 H         1.660618        -1.610332         1.187920
