19
Iteration:   544charge 0 multiplicity 1
 C        -0.023118         0.374371        -0.285242
 C         1.562400         0.140095        -0.186664
 C         2.606266         1.293417        -0.008334
 C         3.766103         0.580411         0.631228
 C         3.258707        -0.672999         1.213224
 O         1.807632        -0.616598         1.209056
 C         4.070754        -0.677038        -0.123459
 O         3.444602        -0.848780        -1.369694
 C         1.997779        -0.838884        -1.234198
 H        -0.438624         0.249225         0.757180
 H        -0.240641         1.510326        -0.539332
 H        -0.568853        -0.252463        -0.932241
 H         2.971093         1.644205        -1.008050
 H         2.230597         2.089200         0.519544
 H         4.666530         1.164208         1.003154
 H         3.835010        -1.374567         1.892022
 H         5.048581        -1.089251        -0.046124
 H         1.395392        -0.657194        -2.258224
 H         1.614906        -1.877763        -1.046886
