19
Iteration:  2095charge 0 multiplicity 1
 C         0.068573         0.424113        -0.265700
 C         1.578909         0.048363        -0.175019
 C         2.456886         1.125977        -0.862668
 C         3.763738         0.767478        -0.209468
 C         3.367095         0.140480         1.157087
 O         1.966605         0.065961         1.325334
 C         4.074480        -0.716402         0.080727
 O         3.379027        -1.702647        -0.756945
 C         1.868219        -1.395561        -0.608179
 H        -0.235545         0.604674         0.737672
 H        -0.117188         1.328408        -0.862947
 H        -0.529204        -0.473945        -0.682533
 H         2.315567         0.915430        -2.032560
 H         2.040660         2.016741        -0.458188
 H         4.625211         1.433417        -0.221966
 H         3.842650         0.625947         2.045667
 H         5.173931        -0.982850         0.197781
 H         1.312383        -1.749816        -1.516052
 H         1.329756        -1.917397         0.164677
