19
Iteration:  3561charge 0 multiplicity 1
 C         0.135092         0.407231        -0.181276
 C         1.506766        -0.055775        -0.135239
 C         2.389705         0.176412        -1.454925
 C         3.780556         0.404340        -0.947026
 C         3.482538         0.811796         0.502479
 O         2.120592         0.865877         0.790096
 C         3.993598        -0.624848         0.221960
 O         3.197905        -1.795074         0.289524
 C         1.889173        -1.518644         0.468826
 H        -0.581105        -0.293104        -0.668763
 H        -0.172670         0.494250         0.793465
 H         0.109631         1.436584        -0.671274
 H         2.166593        -0.612095        -2.203189
 H         1.924951         1.118846        -1.861556
 H         4.550490         0.958307        -1.519419
 H         4.110513         1.543936         0.886763
 H         5.060618        -0.878457         0.530323
 H         1.265544        -2.325654         0.162982
 H         1.759978        -1.411616         1.457174
