19
Iteration:  4978charge 0 multiplicity 1
 C        -0.065075         0.291759        -0.077682
 C         1.503930        -0.073382        -0.195988
 C         2.379954        -0.094130        -1.518261
 C         3.850917         0.113673        -1.129240
 C         3.595036         0.851394         0.229261
 O         2.249453         1.016054         0.521177
 C         4.061272        -0.536857         0.286843
 O         3.149359        -1.612369         0.586279
 C         1.781395        -1.301729         0.806185
 H        -0.377889         0.650466        -1.002890
 H        -0.709874        -0.699884         0.078096
 H        -0.142219         1.032166         0.742288
 H         2.219967        -0.983640        -2.110346
 H         2.075274         0.793817        -2.010275
 H         4.550190         0.440594        -1.940813
 H         4.388565         1.527365         0.625177
 H         5.092770        -0.740450         0.563016
 H         1.183294        -2.138738         0.618191
 H         1.473739        -0.966601         1.780199
