19
Iteration:  3246charge 0 multiplicity 1
 C         0.042290         0.224678        -0.115704
 C         1.551879         0.016996        -0.203015
 C         2.335019         0.460074        -1.453888
 C         3.743762         0.489131        -0.803481
 C         3.622563         0.726972         0.682843
 O         2.222627         0.705736         0.953424
 C         4.076383        -0.666290         0.173698
 O         3.121516        -1.697690         0.404098
 C         1.768436        -1.521302        -0.049190
 H        -0.236884        -0.145298         0.892333
 H        -0.310940         1.217228        -0.143636
 H        -0.230811        -0.418592        -1.019560
 H         2.235318        -0.219778        -2.198495
 H         2.227466         1.462908        -1.987464
 H         4.551677         1.023363        -1.267359
 H         4.298372         1.381485         1.292381
 H         5.102653        -0.994756         0.306398
 H         1.539412        -1.991136        -1.132865
 H         1.053241        -1.834367         0.655515
