19
Iteration:  3350
 C        -0.005096         0.229755        -0.241637
 C         1.506743        -0.040367        -0.111860
 C         2.401150         0.263596        -1.409292
 C         3.850495         0.471797        -0.795986
 C         3.576733         0.801529         0.713740
 O         2.201537         0.891018         0.900530
 C         4.024974        -0.648314         0.181893
 O         3.155740        -1.781460         0.052780
 C         1.791485        -1.438949         0.273149
 H        -0.251799         0.369212        -1.260713
 H        -0.487592        -0.515314         0.448411
 H        -0.189897         1.053928         0.331271
 H         2.321938        -0.688974        -2.128992
 H         2.170131         1.163766        -1.906060
 H         4.605049         0.895575        -1.450758
 H         4.096564         1.337452         1.455255
 H         5.047079        -0.978151         0.573379
 H         1.172808        -2.172790        -0.218369
 H         1.463454        -1.508053         1.456901
