19
Iteration:   876
 C         0.084849         0.394798        -0.131032
 C         1.547131         0.122902        -0.139164
 C         2.432050         1.361301        -0.167084
 C         3.713836         0.769944         0.359814
 C         3.313302        -0.356591         1.213158
 O         1.951995        -0.612137         1.054147
 C         4.078580        -0.713676        -0.080080
 O         3.292401        -1.430146        -0.971174
 C         2.065170        -0.780593        -1.324808
 H        -0.411521         0.530012        -1.161143
 H        -0.504352        -0.457741         0.347232
 H        -0.113979         1.359307         0.472775
 H         2.497385         1.662423        -1.188496
 H         2.044897         2.144498         0.495934
 H         4.521519         1.503797         0.577389
 H         3.720959        -0.673614         2.129602
 H         5.111793        -1.057154        -0.039267
 H         2.405196        -0.097579        -2.094188
 H         1.413849        -1.484913        -1.779864
