19
Iteration:  4843charge 0 multiplicity 1
 C         0.040724         0.266439        -0.106791
 C         1.559281         0.052675        -0.078205
 C         2.216761        -0.079337        -1.478299
 C         3.699994        -0.111770        -1.126894
 C         3.554319         0.876874         0.109333
 O         2.302690         1.054846         0.525875
 C         4.046254        -0.510568         0.281206
 O         3.213029        -1.509726         0.927933
 C         1.857695        -1.387603         0.480069
 H        -0.208183         1.253420         0.453078
 H        -0.283556         0.628241        -1.027005
 H        -0.489130        -0.673219         0.289560
 H         1.929056        -0.851912        -2.116548
 H         2.040472         0.912858        -1.964561
 H         4.292266        -0.181254        -1.985394
 H         4.223131         1.730724         0.298852
 H         5.039506        -0.708507         0.572171
 H         1.561379        -2.156059        -0.279641
 H         1.370839        -1.568116         1.425835
