19
Iteration:  4430charge 0 multiplicity 1
 C         0.120776         0.356784        -0.236907
 C         1.526746        -0.013983        -0.064510
 C         2.181142         0.022543        -1.523578
 C         3.578629        -0.042649        -1.127794
 C         3.592604         0.836518         0.235783
 O         2.223253         1.081717         0.685513
 C         4.067535        -0.582567         0.275794
 O         3.341072        -1.549461         0.854228
 C         1.837584        -1.459415         0.448137
 H        -0.493151        -0.549752        -0.620827
 H        -0.204154         0.631880         0.769935
 H        -0.135138         1.205243        -0.971737
 H         1.881985        -0.891539        -1.983863
 H         1.786900         0.826199        -2.161592
 H         4.399648         0.210805        -1.812021
 H         4.242200         1.630783         0.581769
 H         5.123232        -0.745103         0.466979
 H         1.551677        -2.116552        -0.474269
 H         1.385338        -1.736964         1.383681
