19
Iteration:  2408charge 0 multiplicity 1
 C         0.029324         0.319120        -0.219177
 C         1.557866         0.066546        -0.160081
 C         2.438208         0.979882        -1.029001
 C         3.764733         0.740813        -0.381561
 C         3.501799         0.345494         1.032389
 O         2.066048         0.240756         1.203730
 C         4.071629        -0.721744         0.066222
 O         3.210485        -1.853803        -0.190080
 C         1.882510        -1.360364        -0.626152
 H        -0.570932        -0.359912        -0.808502
 H        -0.290921         0.155551         0.775674
 H        -0.230420         1.359699        -0.521481
 H         2.298014         0.737904        -2.058222
 H         1.950256         2.057801        -0.926235
 H         4.548841         1.411983        -0.725649
 H         4.006419         0.830004         1.827571
 H         5.063653        -1.009301         0.031527
 H         1.952241        -1.281569        -1.718290
 H         1.315554        -2.182436        -0.399372
