19
Iteration:   265
 C         0.067777         0.433543        -0.137522
 C         1.547910         0.112966        -0.117094
 C         2.386793         1.276251         0.356481
 C         3.684362         0.581993         0.579058
 C         3.285312        -0.731078         1.110775
 O         1.881272        -0.832700         0.910036
 C         4.028682        -0.657244        -0.122683
 O         3.407981        -1.090846        -1.259305
 C         2.204497        -0.402698        -1.485065
 H        -0.127334         0.909044        -1.055935
 H        -0.551247        -0.463216        -0.088154
 H        -0.291454         1.243971         0.670859
 H         2.313527         2.061683        -0.289360
 H         2.049829         1.627487         1.326837
 H         4.440413         1.257316         0.904430
 H         3.677424        -1.260542         1.987272
 H         5.018721        -0.981911        -0.105310
 H         2.302671         0.491985        -2.198822
 H         1.493695        -1.144778        -1.930437
