19
Iteration:   346
 C         0.054724         0.465250        -0.071491
 C         1.561029         0.056984        -0.122203
 C         2.544756         1.351727         0.056480
 C         3.680282         0.577217         0.683202
 C         3.124972        -0.794917         1.163453
 O         1.752803        -0.767041         1.039170
 C         4.022577        -0.704461        -0.131380
 O         3.615328        -0.749172        -1.465843
 C         2.087838        -0.752241        -1.314254
 H        -0.447789         0.059927         0.918557
 H         0.019121         1.618637        -0.006835
 H        -0.551002         0.182417        -0.881865
 H         2.773302         1.709288        -1.004423
 H         2.199278         2.155121         0.677582
 H         4.517156         1.130148         1.134017
 H         3.530906        -1.353770         1.967520
 H         5.095457        -1.048817         0.096538
 H         1.719747        -0.473219        -2.332531
 H         1.757015        -1.769115        -1.070105
