19
Iteration:  3082
 C         0.020940         0.273592        -0.286339
 C         1.531043        -0.012711        -0.108477
 C         2.428922         0.517388        -1.367606
 C         3.771957         0.574038        -0.718091
 C         3.567075         0.671765         0.827609
 O         2.201411         0.593232         1.111333
 C         4.040928        -0.648362         0.093088
 O         3.168232        -1.741505         0.067665
 C         1.786824        -1.475615         0.015446
 H        -0.327857        -0.634934        -0.790784
 H        -0.434895         0.296180         0.652686
 H        -0.173132         1.218955        -0.772283
 H         2.325446        -0.177252        -2.187287
 H         1.965170         1.459216        -1.857832
 H         4.564292         1.157758        -1.256812
 H         4.136223         1.276237         1.508930
 H         5.117221        -0.944564         0.118763
 H         1.341179        -1.979525        -0.816420
 H         1.223419        -1.733443         0.958507
