19
Iteration:  2258
 C         0.047473         0.278754        -0.099810
 C         1.593752         0.035511        -0.205466
 C         2.392566         1.162184        -0.914687
 C         3.818713         0.750487        -0.335526
 C         3.427415         0.245348         1.065225
 O         2.037922         0.264266         1.126295
 C         3.991137        -0.739735         0.133868
 O         3.257363        -1.829383        -0.351169
 C         1.937655        -1.404301        -0.773862
 H        -0.166473         1.287613        -0.283114
 H        -0.450488        -0.244087        -0.886990
 H        -0.475431         0.034670         0.906685
 H         2.353899         1.142342        -1.985646
 H         2.143405         2.075618        -0.419159
 H         4.754394         1.345125        -0.411593
 H         4.019299         0.555625         1.929314
 H         4.978531        -1.067007         0.362714
 H         1.879455        -1.619764        -1.843317
 H         1.153644        -2.056725        -0.335223
