19
Iteration:   643charge 0 multiplicity 1
 C         0.081935         0.294384        -0.241480
 C         1.554432         0.132635        -0.139617
 C         2.440817         1.411953         0.059901
 C         3.738352         0.691190         0.394684
 C         3.360327        -0.439756         1.281643
 O         1.964462        -0.752834         1.057137
 C         4.011524        -0.719348        -0.086902
 O         3.254950        -1.331441        -1.057879
 C         2.049877        -0.554678        -1.429205
 H        -0.238692         0.082184        -1.247013
 H        -0.451364        -0.237097         0.558854
 H        -0.133772         1.367989        -0.051462
 H         2.577990         2.000836        -0.874529
 H         2.199275         2.040742         0.847226
 H         4.622593         1.276804         0.707712
 H         3.692390        -0.694988         2.229482
 H         5.099537        -1.019261        -0.218722
 H         2.349514         0.208579        -2.230396
 H         1.336882        -1.148182        -1.921879
