19
Iteration:   458charge 0 multiplicity 1
 C         0.115179         0.306174        -0.104721
 C         1.656081         0.187208        -0.213710
 C         2.462720         1.422995         0.126920
 C         3.727829         0.685329         0.481363
 C         3.238758        -0.622251         1.223702
 O         1.870077        -0.799725         0.924944
 C         4.013362        -0.701161        -0.036953
 O         3.294561        -1.235985        -1.175689
 C         2.143728        -0.500242        -1.407296
 H        -0.338153         1.295469        -0.213629
 H        -0.289075        -0.496224        -0.782062
 H        -0.126395         0.099469         0.958007
 H         2.447287         2.022813        -0.845285
 H         2.002689         1.970429         0.986218
 H         4.588464         1.293980         0.833001
 H         3.491220        -0.863556         2.315809
 H         4.995280        -1.029058        -0.148424
 H         2.366846         0.309087        -2.124605
 H         1.351025        -1.038986        -1.955450
