19
Iteration:    12charge 0 multiplicity 1
 C         0.013454         0.465784        -0.136955
 C         1.529279         0.093030        -0.088180
 C         2.413699         1.169570         0.443919
 C         3.714806         0.454210         0.811545
 C         3.220594        -0.982620         0.987416
 O         1.813912        -0.912755         0.874022
 C         4.092833        -0.636831        -0.174230
 O         3.542155        -0.707130        -1.452347
 C         2.132317        -0.284445        -1.423201
 H        -0.447315         0.341466         0.867730
 H        -0.097843         1.505332        -0.522233
 H        -0.389416        -0.235657        -0.878157
 H         2.552410         2.066929        -0.129421
 H         1.885246         1.405045         1.379701
 H         4.443646         0.718960         1.571966
 H         3.469390        -1.564147         1.875465
 H         5.166431        -0.923126        -0.142585
 H         2.103672         0.662383        -1.982117
 H         1.632248        -1.063953        -1.999586
