19
Iteration:  1721charge 0 multiplicity 1
 C         0.113160         0.456280        -0.206454
 C         1.553730        -0.033964        -0.142601
 C         2.596385         1.069049        -0.799233
 C         3.829993         0.820718         0.084398
 C         3.321176        -0.049740         1.192502
 O         1.912279        -0.103501         1.232438
 C         4.067988        -0.686826         0.082346
 O         3.265873        -1.312511        -1.008502
 C         1.871307        -1.412897        -0.661125
 H        -0.112761         0.751962        -1.283027
 H        -0.644749        -0.324695         0.063773
 H        -0.115031         1.310420         0.420456
 H         2.671280         0.671032        -1.868877
 H         2.213426         2.033602        -0.681594
 H         4.581510         1.554134         0.219673
 H         3.726539         0.008436         2.160179
 H         5.124375        -1.082332         0.191731
 H         1.373594        -1.582850        -1.520145
 H         1.503180        -2.279448        -0.023273
