19
Iteration:  3193charge 0 multiplicity 1
 C         0.003586         0.388009        -0.226024
 C         1.563515        -0.044053        -0.149706
 C         2.299231         0.529742        -1.423947
 C         3.711950         0.553043        -0.783988
 C         3.542391         0.610249         0.686883
 O         2.149663         0.662042         0.960082
 C         4.072680        -0.678509         0.214004
 O         3.271392        -1.835900         0.262309
 C         1.891822        -1.477919         0.070586
 H        -0.090068         1.355328         0.162667
 H        -0.345296         0.479866        -1.225594
 H        -0.755763        -0.358003         0.259543
 H         2.221447        -0.161247        -2.369971
 H         1.992006         1.605920        -1.631279
 H         4.576562         0.989821        -1.226466
 H         4.090519         1.439526         1.228833
 H         5.119195        -0.934887         0.278921
 H         1.580203        -2.037294        -0.806400
 H         1.277095        -1.801515         1.006598
