19
Iteration:   938
 C         0.033777         0.456903        -0.228086
 C         1.541150         0.119612        -0.176493
 C         2.590788         1.250614        -0.262047
 C         3.780992         0.644727         0.407025
 C         3.224648        -0.485383         1.229966
 O         1.839643        -0.399825         1.286939
 C         4.054390        -0.677160        -0.100884
 O         3.455867        -1.039796        -1.300490
 C         1.971973        -1.148072        -1.058212
 H        -0.128362         1.500609        -0.357073
 H        -0.381469        -0.020032        -1.031670
 H        -0.437416         0.005040         0.597270
 H         2.614560         1.496414        -1.389353
 H         2.344541         2.228614         0.117699
 H         4.531768         1.349736         0.814553
 H         3.615773        -0.814235         2.195582
 H         5.058572        -0.979131        -0.064969
 H         1.373287        -1.168536        -1.991848
 H         1.726385        -2.147056        -0.556885
