19
Iteration:  3065
 C        -0.023879         0.304227        -0.192163
 C         1.519561         0.058322        -0.097230
 C         2.372257         0.525291        -1.310014
 C         3.799849         0.590757        -0.768066
 C         3.565019         0.548209         0.741150
 O         2.117348         0.595192         1.057856
 C         4.107044        -0.654671         0.097685
 O         3.238481        -1.723078         0.209584
 C         1.808608        -1.471278        -0.096388
 H        -0.553084        -0.633632        -0.436550
 H        -0.551519         0.805999         0.719348
 H        -0.254854         0.979931        -1.086139
 H         2.327851        -0.190382        -2.241516
 H         2.231089         1.466915        -1.719306
 H         4.614478         1.101371        -1.196877
 H         4.128361         1.115851         1.469894
 H         5.137484        -0.943797         0.271671
 H         1.602072        -1.902300        -1.207210
 H         1.265292        -2.194015         0.541364
