19
Iteration:  4513
 C        -0.039603         0.380809        -0.241197
 C         1.503172        -0.003186        -0.077709
 C         2.251843        -0.178536        -1.330283
 C         3.719656         0.075903        -1.044874
 C         3.606026         0.897552         0.269700
 O         2.216478         1.166677         0.492333
 C         4.118793        -0.599266         0.256147
 O         3.249003        -1.657711         0.569401
 C         1.888603        -1.423866         0.691146
 H        -0.163168         0.903289        -1.257671
 H        -0.634027        -0.620428        -0.408312
 H        -0.305161         0.888113         0.654528
 H         2.014278        -1.178513        -1.759021
 H         1.835662         0.571719        -2.094475
 H         4.301174         0.328268        -1.872475
 H         4.280974         1.820732         0.461425
 H         5.028057        -0.769557         0.767963
 H         1.264625        -2.229850         0.270349
 H         1.775447        -1.262544         1.854573
