19
Iteration:    39
 C         0.103208         0.405317        -0.185681
 C         1.569946         0.154226        -0.062551
 C         2.417849         1.291419         0.611679
 C         3.723092         0.557300         0.731051
 C         3.245484        -0.881931         1.127540
 O         1.835540        -1.080244         0.844633
 C         3.945906        -0.651387        -0.169319
 O         3.437030        -0.880387        -1.454732
 C         2.229994        -0.192274        -1.538696
 H        -0.596226        -0.455923         0.153038
 H        -0.213100         1.337577         0.300984
 H        -0.184788         0.416080        -1.256580
 H         2.451227         2.143267        -0.130543
 H         1.941062         1.573736         1.593069
 H         4.640010         1.037200         1.121946
 H         3.563742        -1.529569         1.939670
 H         5.007221        -0.983350        -0.156255
 H         2.213142         0.766150        -2.107543
 H         1.409550        -0.796938        -2.029334
