19
Iteration:  2192
 C         0.030980         0.317021        -0.202477
 C         1.514197         0.014823        -0.250512
 C         2.442640         1.077750        -0.844274
 C         3.815862         0.794125        -0.258483
 C         3.473227         0.222759         1.090240
 O         2.053558         0.114776         1.214585
 C         4.010569        -0.647840         0.037945
 O         3.228752        -1.793067        -0.378420
 C         1.924796        -1.356739        -0.755542
 H        -0.463851        -0.038472        -1.056972
 H        -0.401838        -0.028585         0.712722
 H         0.018195         1.459212        -0.156162
 H         2.468297         1.044887        -1.985949
 H         2.083436         2.030016        -0.441560
 H         4.702006         1.451006        -0.412966
 H         3.991433         0.652515         2.010439
 H         5.113085        -0.903625         0.119894
 H         1.609272        -1.455709        -1.843676
 H         1.233740        -2.077326        -0.251288
