19
Iteration:  4246
 C         0.094309         0.340858        -0.053886
 C         1.563959         0.058161        -0.221845
 C         2.219816         0.203467        -1.570642
 C         3.662651        -0.028610        -1.069999
 C         3.574641         0.836894         0.312538
 O         2.184210         0.980707         0.635070
 C         4.005990        -0.580337         0.242979
 O         3.270565        -1.668570         0.855686
 C         1.918939        -1.465523         0.361164
 H        -0.116940         1.007101         0.652051
 H        -0.298542         0.634074        -0.961118
 H        -0.418990        -0.644838         0.184223
 H         1.794097        -0.694430        -2.075004
 H         2.150992         1.135134        -2.135729
 H         4.518229         0.269038        -1.604174
 H         4.108601         1.826394         0.560253
 H         5.033371        -0.794582         0.455695
 H         1.733233        -2.286201        -0.301685
 H         1.161261        -1.444025         1.259928
