19
Iteration:  4088
 C         0.034331         0.303433        -0.274016
 C         1.569226        -0.047447        -0.067375
 C         2.207474         0.036997        -1.454527
 C         3.691453         0.196840        -1.102901
 C         3.607057         0.799643         0.286721
 O         2.273951         1.002250         0.589574
 C         4.040592        -0.616759         0.169560
 O         3.283489        -1.669968         0.671660
 C         1.771162        -1.356506         0.716052
 H        -0.596305        -0.298611         0.411693
 H        -0.273770         1.357697         0.051024
 H        -0.291029         0.142406        -1.238001
 H         2.065833        -0.749874        -2.191871
 H         1.941543         1.068661        -1.867693
 H         4.559274         0.403655        -1.701054
 H         4.196057         1.751071         0.560847
 H         5.047725        -0.732344         0.412325
 H         1.245837        -2.230234         0.137046
 H         1.558662        -1.444113         1.847894
