19
Iteration:    56
 C         0.128848         0.340652        -0.209516
 C         1.618954         0.142439        -0.084119
 C         2.425159         1.277888         0.496425
 C         3.695659         0.521794         0.797846
 C         3.235228        -0.889932         1.099208
 O         1.901117        -0.963303         0.697277
 C         4.078381        -0.662666        -0.148596
 O         3.317441        -0.905831        -1.338720
 C         2.066758        -0.160550        -1.440781
 H        -0.224553        -0.634461        -0.266251
 H        -0.277572         0.842961         0.696978
 H        -0.074800         0.967443        -1.098112
 H         2.509078         2.156516        -0.088571
 H         2.046612         1.565531         1.475452
 H         4.488015         0.937319         1.455747
 H         3.499759        -1.429070         2.047825
 H         5.179447        -0.963581        -0.216880
 H         2.317930         0.750091        -2.000739
 H         1.464306        -0.789821        -2.037100
