19
Iteration:  2552charge 0 multiplicity 1
 C         0.024844         0.389431        -0.256943
 C         1.550036         0.025654        -0.121929
 C         2.460000         0.718124        -1.141105
 C         3.791169         0.706218        -0.361634
 C         3.457033         0.395702         1.019115
 O         2.045368         0.419504         1.230549
 C         4.094332        -0.683723         0.085569
 O         3.264564        -1.683747        -0.491866
 C         1.831554        -1.509737        -0.253367
 H        -0.601083         0.174067         0.568397
 H        -0.316207         1.304862        -0.688310
 H        -0.325056        -0.404611        -0.937588
 H         2.467098         0.176482        -2.028027
 H         2.243038         1.816659        -1.456925
 H         4.588486         1.382893        -0.647860
 H         3.980891         0.736634         1.924416
 H         5.116277        -1.174755         0.198888
 H         1.262274        -1.984677        -1.172141
 H         1.538955        -1.935104         0.660135
