19
Iteration:  2292charge 0 multiplicity 1
 C        -0.018170         0.298057        -0.222504
 C         1.540439         0.035624        -0.141023
 C         2.552107         0.958712        -1.016962
 C         3.823297         0.769187        -0.293484
 C         3.463993         0.247614         1.140403
 O         2.054190         0.187851         1.240053
 C         4.028329        -0.665058         0.069059
 O         3.247194        -1.627468        -0.523023
 C         1.832348        -1.414316        -0.542288
 H        -0.290654         1.135373         0.346353
 H        -0.108681         0.642079        -1.259165
 H        -0.690181        -0.629397        -0.091119
 H         2.476160         0.519031        -2.069711
 H         2.148036         1.925899        -1.167590
 H         4.751071         1.316574        -0.409612
 H         3.860120         0.475785         2.095942
 H         4.966359        -1.062159         0.257123
 H         1.425162        -1.744693        -1.538176
 H         1.393601        -1.944295         0.320672
