19
Iteration:  3523
 C        -0.024377         0.313482        -0.307890
 C         1.532865         0.041646        -0.093359
 C         2.294078         0.098465        -1.358933
 C         3.766919         0.413445        -0.850525
 C         3.555202         0.685588         0.577424
 O         2.194516         0.951510         0.836491
 C         4.116093        -0.675733         0.127947
 O         3.190632        -1.741074         0.195785
 C         1.884963        -1.403430         0.428488
 H        -0.613533        -0.588822        -0.104986
 H        -0.374838         1.161820         0.484142
 H        -0.250282         0.651497        -1.304275
 H         2.440691        -0.848450        -1.933797
 H         2.054424         0.950797        -1.973225
 H         4.427517         1.129037        -1.304264
 H         4.123139         1.482908         1.194715
 H         5.076064        -1.009992         0.430423
 H         1.225953        -2.262270        -0.010538
 H         1.643326        -1.338047         1.603622
