19
Iteration:  3461
 C        -0.047186         0.444511        -0.141924
 C         1.527872        -0.058245        -0.128513
 C         2.340316         0.375331        -1.461134
 C         3.768176         0.362031        -0.942538
 C         3.513643         0.693461         0.573792
 O         2.114523         0.839699         0.789061
 C         4.090816        -0.680648         0.171830
 O         3.319239        -1.817836         0.494436
 C         1.887965        -1.492867         0.202595
 H        -0.441665         0.653162         0.892391
 H        -0.127282         1.325772        -0.750869
 H        -0.681349        -0.297066        -0.558449
 H         2.051966        -0.295539        -2.370218
 H         2.069559         1.358450        -1.774872
 H         4.654693         0.771014        -1.447417
 H         4.092402         1.483034         1.198071
 H         5.124024        -0.866112         0.359992
 H         1.556575        -2.192611        -0.619097
 H         1.207825        -1.645393         1.132199
