19
Iteration:  2979charge 0 multiplicity 1
 C         0.057351         0.230965        -0.252854
 C         1.561819         0.029225        -0.088889
 C         2.388645         0.581516        -1.291870
 C         3.815865         0.577930        -0.720262
 C         3.556924         0.637251         0.818363
 O         2.160962         0.587532         1.152054
 C         3.984565        -0.605993         0.103005
 O         3.187836        -1.789963         0.017060
 C         1.792296        -1.491651        -0.103748
 H        -0.389949         0.764132         0.577131
 H        -0.053948         0.888113        -1.179030
 H        -0.412343        -0.729885        -0.260418
 H         2.249674        -0.184563        -2.035518
 H         2.179869         1.676743        -1.600396
 H         4.565848         1.087383        -1.289363
 H         4.143435         1.168712         1.524333
 H         5.034537        -0.911418         0.234906
 H         1.426545        -1.843026        -1.028231
 H         1.207805        -1.822713         0.674230
