19
Iteration:  1918charge 0 multiplicity 1
 C         0.143987         0.335789        -0.130060
 C         1.610617         0.037076        -0.144579
 C         2.547539         1.055882        -0.788632
 C         3.798615         0.697729        -0.069971
 C         3.262201         0.073823         1.207658
 O         1.857722         0.079788         1.249722
 C         3.987433        -0.726929         0.040058
 O         3.322690        -1.468787        -0.965483
 C         1.986290        -1.339662        -0.654701
 H        -0.598634        -0.541258        -0.217553
 H        -0.096725         0.950154         0.698079
 H        -0.020973         0.923204        -1.003960
 H         2.538310         0.917466        -1.919359
 H         2.259387         2.042867        -0.798296
 H         4.684856         1.384787        -0.174411
 H         3.744720         0.071028         2.247504
 H         4.905812        -1.193650         0.233036
 H         1.254077        -1.575226        -1.542820
 H         1.817913        -2.003391         0.272622
