19
Iteration:  2966
 C         0.105803         0.288014        -0.241938
 C         1.559910        -0.027980        -0.098517
 C         2.408278         0.592900        -1.255926
 C         3.756681         0.630539        -0.711864
 C         3.492568         0.602658         0.765507
 O         2.121718         0.629830         1.083547
 C         4.050919        -0.690798         0.164638
 O         3.219748        -1.795120        -0.083226
 C         1.794957        -1.494892         0.008411
 H        -0.134099         1.084414         0.429751
 H        -0.146177         0.584347        -1.300813
 H        -0.644459        -0.574125        -0.161575
 H         2.343573         0.287445        -2.354418
 H         1.959287         1.562689        -1.335235
 H         4.577189         1.235764        -1.141076
 H         4.118663         1.009806         1.519165
 H         5.065222        -0.992099         0.573109
 H         1.279806        -2.081841        -0.806487
 H         1.510005        -1.911785         0.889713
