19
Iteration:  2625charge 0 multiplicity 1
 C         0.107584         0.272652        -0.168994
 C         1.536623         0.077255        -0.149616
 C         2.374973         0.955686        -1.126689
 C         3.788833         0.603873        -0.605744
 C         3.497495         0.466156         0.906979
 O         2.088828         0.313939         1.126096
 C         4.033925        -0.661918         0.122658
 O         3.183331        -1.806702        -0.002093
 C         1.919231        -1.472844        -0.477042
 H        -0.463781        -0.486491        -0.755350
 H        -0.372588         0.363999         0.793133
 H        -0.279163         1.335410        -0.598740
 H         2.201721         0.741618        -2.252178
 H         2.186941         2.041308        -0.900302
 H         4.560237         1.241900        -1.053144
 H         4.074772         0.849100         1.766980
 H         5.092745        -0.992743         0.291434
 H         1.820054        -1.651575        -1.512189
 H         1.141148        -2.096286         0.103574
