19
Iteration:  2213
 C         0.117279         0.315578        -0.182549
 C         1.551298         0.144493        -0.097415
 C         2.399897         1.128573        -0.992524
 C         3.711234         0.803336        -0.367345
 C         3.499180         0.241487         1.088050
 O         2.068122        -0.030324         1.189383
 C         4.034926        -0.707952         0.082159
 O         3.163966        -1.744061        -0.250519
 C         1.944440        -1.307475        -0.775145
 H        -0.058779         0.464662        -1.230718
 H        -0.340416        -0.591479         0.139904
 H        -0.269001         1.195911         0.423852
 H         2.255590         0.842600        -1.993127
 H         2.167784         2.158751        -0.745215
 H         4.630317         1.412348        -0.529116
 H         3.893430         0.429847         2.155453
 H         5.107563        -1.117309         0.152362
 H         1.949959        -1.241292        -1.890549
 H         1.266580        -2.232017        -0.683734
