19
Iteration:  4315
 C         0.070873         0.300746        -0.289511
 C         1.561585        -0.046044        -0.133951
 C         2.241079        -0.058056        -1.471200
 C         3.724858         0.188510        -1.062865
 C         3.554136         0.861865         0.383181
 O         2.210478         0.994762         0.706410
 C         4.094132        -0.582612         0.185424
 O         3.215382        -1.713449         0.512360
 C         1.811353        -1.296970         0.682004
 H        -0.430885         0.125260         0.659021
 H         0.013369         1.418587        -0.497787
 H        -0.455697        -0.228869        -1.008146
 H         2.101008        -1.035170        -2.019702
 H         1.872792         0.759633        -2.066932
 H         4.438528         0.576197        -1.866977
 H         4.132031         1.679333         0.702808
 H         5.153329        -0.764938         0.494607
 H         1.174833        -2.163417         0.674164
 H         1.913969        -0.899793         1.792033
