19
Iteration:  3091charge 0 multiplicity 1
 C         0.089836         0.272171        -0.278494
 C         1.600682        -0.012221        -0.208814
 C         2.333062         0.497688        -1.320293
 C         3.774778         0.648543        -0.725622
 C         3.558697         0.655220         0.780735
 O         2.185908         0.616037         1.095010
 C         4.026013        -0.641712         0.175899
 O         3.165198        -1.804255         0.002829
 C         1.776747        -1.458050         0.089891
 H        -0.454533        -0.393230        -1.081249
 H        -0.394976         0.094927         0.694971
 H        -0.181440         1.240498        -0.624735
 H         2.406583        -0.167505        -2.117758
 H         2.015312         1.605382        -1.658154
 H         4.677064         1.118441        -1.208235
 H         4.125430         1.351825         1.447788
 H         5.027671        -1.076236         0.303788
 H         1.242378        -2.222459        -0.657954
 H         1.423326        -1.712345         1.060013
