19
Iteration:  4666charge 0 multiplicity 1
 C         0.099184         0.371836        -0.188837
 C         1.579847        -0.036824        -0.070340
 C         2.186420        -0.142093        -1.533732
 C         3.548432         0.017153        -1.134760
 C         3.593686         0.874466         0.134747
 O         2.284042         1.046288         0.519915
 C         4.018632        -0.547777         0.246478
 O         3.284080        -1.497320         0.933857
 C         1.850263        -1.424304         0.618978
 H        -0.400295         0.047071         0.812250
 H         0.015311         1.431017        -0.569860
 H        -0.373416        -0.201385        -0.937675
 H         2.058142        -1.089790        -2.021117
 H         1.934846         0.685518        -2.191128
 H         4.444785         0.214585        -1.776956
 H         4.175952         1.696760         0.394209
 H         5.110836        -0.705379         0.463029
 H         1.507568        -2.384131         0.011095
 H         1.344767        -1.437637         1.577008
