19
Iteration:  2876charge 0 multiplicity 1
 C         0.028673         0.277268        -0.204698
 C         1.550168         0.017311        -0.132527
 C         2.384953         0.755183        -1.257902
 C         3.818672         0.579835        -0.658008
 C         3.509489         0.521572         0.812072
 O         2.096970         0.575002         1.104724
 C         4.060091        -0.666774         0.145277
 O         3.262832        -1.823997        -0.019790
 C         1.826520        -1.498048        -0.180471
 H        -0.351144         0.152420        -1.265047
 H        -0.526141        -0.368212         0.451690
 H        -0.299514         1.334099         0.165856
 H         2.258096         0.133023        -2.265309
 H         2.167340         1.746410        -1.465004
 H         4.553329         1.333522        -0.920837
 H         3.980190         1.107276         1.625684
 H         5.021483        -1.031110         0.372091
 H         1.397865        -2.043490        -1.111443
 H         1.323822        -1.854309         0.651227
