19
Iteration:  3989
 C        -0.023239         0.206697        -0.158216
 C         1.522861         0.035536        -0.198427
 C         2.297868         0.194561        -1.525909
 C         3.746093         0.193561        -1.016617
 C         3.577291         0.709907         0.288393
 O         2.198681         1.015219         0.598380
 C         4.067655        -0.713005         0.158103
 O         3.277612        -1.706028         0.705893
 C         1.827583        -1.288876         0.633581
 H        -0.345401         1.075518         0.391006
 H        -0.344774         0.389281        -1.242697
 H        -0.543950        -0.552323         0.335085
 H         1.890523        -0.603429        -2.253805
 H         2.162339         1.252000        -1.963373
 H         4.499212         0.349509        -1.749602
 H         4.329806         1.427065         0.686273
 H         5.127749        -0.650756         0.492630
 H         1.245695        -2.189962         0.364318
 H         1.590847        -1.126336         1.782707
