19
Iteration:   361
 C         0.086948         0.567442        -0.086338
 C         1.512920         0.112660        -0.121181
 C         2.487732         1.190582         0.030231
 C         3.753690         0.585226         0.665912
 C         3.203067        -0.832272         1.125768
 O         1.750218        -0.723670         1.055371
 C         4.091093        -0.622440        -0.054463
 O         3.499722        -0.702325        -1.432937
 C         2.141123        -0.883466        -1.340100
 H        -0.498729        -0.244286         0.335172
 H        -0.061846         1.463216         0.533565
 H        -0.356896         0.690600        -1.148966
 H         2.748732         1.718852        -0.946290
 H         1.934892         1.946777         0.737873
 H         4.414198         1.139187         1.286882
 H         3.401514        -1.354408         2.079968
 H         5.020404        -1.061273        -0.131346
 H         1.665911        -0.572409        -2.247503
 H         1.833178        -1.972641        -1.256332
