19
Iteration:  2955
 C         0.051227         0.357055        -0.253391
 C         1.539871        -0.049519        -0.166837
 C         2.349502         0.651490        -1.258256
 C         3.813350         0.626085        -0.640086
 C         3.499676         0.530024         0.831424
 O         2.082125         0.651528         0.985109
 C         4.056896        -0.687427         0.172100
 O         3.245906        -1.806492        -0.164658
 C         1.869139        -1.585188         0.119894
 H        -0.069498         1.284917         0.272547
 H        -0.196355         0.547602        -1.320749
 H        -0.541133        -0.418998         0.339315
 H         2.189937         0.057682        -2.231819
 H         2.085629         1.692825        -1.253696
 H         4.614708         1.309056        -1.005406
 H         3.972582         1.206725         1.508642
 H         5.124050        -1.014826         0.359785
 H         1.293263        -2.161871        -0.642660
 H         1.543415        -1.772227         1.061531
