19
Iteration:  4200charge 0 multiplicity 1
 C         0.055767         0.268880        -0.225302
 C         1.549557         0.003329        -0.079905
 C         2.301854        -0.013727        -1.457300
 C         3.682304         0.226578        -1.071984
 C         3.663793         0.881914         0.281991
 O         2.315362         0.937125         0.731762
 C         4.068500        -0.583200         0.125440
 O         3.165173        -1.561980         0.736356
 C         1.717925        -1.436481         0.499641
 H        -0.272895         0.867003         0.656216
 H        -0.235998         0.754001        -1.082717
 H        -0.440709        -0.691231        -0.160853
 H         2.153714        -0.898094        -2.039885
 H         1.966912         0.940629        -1.986261
 H         4.245424         0.362925        -2.022443
 H         4.224794         1.638015         0.760770
 H         5.086106        -1.090878         0.118164
 H         1.241774        -2.106905        -0.227910
 H         1.294516        -1.558012         1.517514
