19
Iteration:  3002charge 0 multiplicity 1
 C        -0.030703         0.251537        -0.174150
 C         1.496284         0.041080        -0.168940
 C         2.361611         0.618832        -1.381168
 C         3.767621         0.581502        -0.659902
 C         3.597007         0.556497         0.778995
 O         2.185590         0.563811         1.034879
 C         4.094546        -0.685599         0.141230
 O         3.202189        -1.740650         0.228368
 C         1.826431        -1.443424        -0.209722
 H        -0.405537         0.163934         0.869804
 H        -0.313772         1.275467        -0.560033
 H        -0.459193        -0.576614        -0.651309
 H         2.368282        -0.037373        -2.199035
 H         2.074070         1.745878        -1.500816
 H         4.456317         1.173958        -1.194710
 H         4.159727         1.136314         1.517570
 H         5.106495        -1.033321         0.208568
 H         1.710692        -1.800714        -1.194122
 H         1.167872        -1.897737         0.464820
