19
Iteration:   782charge 0 multiplicity 1
 C         0.024438         0.330476        -0.252246
 C         1.496485         0.119628        -0.108412
 C         2.564159         1.227051        -0.156398
 C         3.869765         0.661865         0.525309
 C         3.272514        -0.538203         1.274404
 O         1.822446        -0.431846         1.172012
 C         4.089584        -0.740102        -0.079337
 O         3.395101        -0.932494        -1.362880
 C         1.984748        -0.984103        -1.135099
 H        -0.584602        -0.090864         0.499826
 H        -0.277148         1.451910        -0.420166
 H        -0.305961        -0.028913        -1.180714
 H         2.866351         1.627975        -1.170282
 H         2.333964         2.117293         0.511459
 H         4.659951         1.387019         0.690297
 H         3.504859        -0.982157         2.196367
 H         5.065175        -1.303380        -0.058838
 H         1.477375        -0.849238        -2.162732
 H         1.576236        -2.064729        -0.819165
