19
Iteration:  3204
 C         0.043174         0.415149        -0.215230
 C         1.510047         0.060694        -0.208925
 C         2.298025         0.564302        -1.404958
 C         3.665865         0.433079        -0.856172
 C         3.504600         0.633191         0.671956
 O         2.113190         0.676341         0.989465
 C         4.096689        -0.701097         0.227277
 O         3.340956        -1.830968         0.341369
 C         1.904984        -1.538584         0.029138
 H        -0.118012         1.143445         0.536156
 H        -0.187968         0.768275        -1.176090
 H        -0.563167        -0.522947         0.058639
 H         2.163663         0.136955        -2.454317
 H         1.946873         1.648614        -1.539346
 H         4.493766         0.855578        -1.392141
 H         4.095799         1.363073         1.315597
 H         5.148138        -0.941883         0.303102
 H         1.620875        -2.058027        -0.877915
 H         1.276966        -1.956082         0.906333
