19
Iteration:  3223charge 0 multiplicity 1
 C        -0.004349         0.316256        -0.162106
 C         1.592361        -0.047330        -0.143701
 C         2.348145         0.537454        -1.313201
 C         3.783080         0.432641        -0.912150
 C         3.538657         0.704408         0.670370
 O         2.162295         0.686606         0.922110
 C         4.007307        -0.629400         0.164479
 O         3.212076        -1.756576         0.398824
 C         1.865984        -1.568905        -0.041525
 H        -0.158582         0.785522         0.849490
 H        -0.159739         1.165917        -0.817579
 H        -0.605826        -0.552878        -0.502050
 H         2.087982         0.066758        -2.185954
 H         2.112338         1.633156        -1.510398
 H         4.675369         0.775861        -1.395297
 H         4.092095         1.386072         1.250468
 H         5.058008        -0.888825         0.408339
 H         1.599282        -1.965926        -1.122385
 H         1.157751        -1.863330         0.635170
