19
Iteration:   755
 C         0.134931         0.531367        -0.176646
 C         1.553005         0.051599        -0.121084
 C         2.548123         1.219551        -0.208707
 C         3.740545         0.747815         0.524087
 C         3.217817        -0.588110         1.177014
 O         1.802814        -0.571550         1.181876
 C         4.013678        -0.710578        -0.054989
 O         3.428470        -0.879787        -1.380838
 C         2.063440        -1.095866        -1.141924
 H        -0.166536         0.909701         0.851141
 H         0.039759         1.221478        -0.931289
 H        -0.694493        -0.231630        -0.463470
 H         2.746385         1.589453        -1.187636
 H         2.187093         2.040392         0.372790
 H         4.407287         1.473171         1.023954
 H         3.645952        -0.837507         2.213132
 H         4.890853        -1.311612         0.018734
 H         1.564160        -1.087224        -2.079130
 H         1.837020        -2.063724        -0.763979
