19
Iteration:  2453
 C         0.109653         0.330951        -0.128248
 C         1.572321         0.048123        -0.201822
 C         2.408228         0.965295        -1.136610
 C         3.753733         0.752175        -0.423394
 C         3.485800         0.451210         0.983191
 O         2.082295         0.151759         1.154938
 C         4.049847        -0.665745         0.120377
 O         3.188444        -1.837168        -0.166884
 C         1.867581        -1.411767        -0.554791
 H        -0.161178         0.946419        -0.939531
 H        -0.504990        -0.496147        -0.332670
 H        -0.226753         0.852684         0.809437
 H         2.368076         0.789606        -2.148617
 H         2.058346         2.098338        -0.945696
 H         4.717789         1.239048        -0.598392
 H         3.803776         0.860796         1.948065
 H         5.067941        -1.071574         0.225651
 H         1.838481        -1.478314        -1.706586
 H         1.160187        -2.069993        -0.143116
