19
Iteration:   545
 C        -0.030600         0.378773        -0.283784
 C         1.558034         0.147167        -0.190643
 C         2.608392         1.289250        -0.012850
 C         3.766968         0.579270         0.634141
 C         3.256676        -0.679549         1.214589
 O         1.809560        -0.614644         1.210508
 C         4.074622        -0.683058        -0.128000
 O         3.441667        -0.836404        -1.368784
 C         1.998202        -0.842346        -1.225275
 H        -0.425560         0.202165         0.738534
 H        -0.198563         1.491961        -0.517775
 H        -0.591505        -0.260815        -0.958875
 H         2.997834         1.604671        -1.017956
 H         2.246158         2.101110         0.489740
 H         4.641777         1.198527         1.030293
 H         3.832371        -1.339439         1.888579
 H         5.074187        -1.119235        -0.054307
 H         1.402671        -0.680567        -2.237699
 H         1.629187        -1.902361        -1.076330
