19
Iteration:  1106
 C         0.063948         0.434916        -0.136593
 C         1.553501         0.064405        -0.215320
 C         2.518961         1.277852        -0.368284
 C         3.781626         0.776240         0.271691
 C         3.286274        -0.270673         1.242264
 O         1.892803        -0.409209         1.126603
 C         4.059508        -0.701044         0.023393
 O         3.414229        -1.337714        -1.067338
 C         1.904223        -1.086148        -1.114769
 H        -0.585753         0.100584        -0.947117
 H        -0.144512        -0.160649         0.698755
 H        -0.128697         1.494400         0.070703
 H         2.670077         1.404703        -1.488295
 H         2.251169         2.256843         0.226181
 H         4.594482         1.445968         0.516323
 H         3.712333        -0.333841         2.290335
 H         5.094257        -1.073684         0.095485
 H         1.660832        -0.746540        -2.158549
 H         1.364215        -2.042039        -0.828845
