19
Iteration:  3386
 C         0.051042         0.281320        -0.166848
 C         1.530405         0.014465        -0.207118
 C         2.288829         0.411398        -1.435002
 C         3.767146         0.374091        -0.857503
 C         3.530487         0.708539         0.668371
 O         2.148445         0.849825         0.822050
 C         4.059411        -0.661208         0.189698
 O         3.264508        -1.876307         0.339511
 C         1.868040        -1.431754         0.202496
 H        -0.259100         1.212610        -0.785496
 H        -0.527119        -0.443131        -0.656720
 H        -0.239083         0.570190         0.876358
 H         2.068335        -0.158343        -2.360782
 H         2.152279         1.537261        -1.749235
 H         4.564869         0.870446        -1.409116
 H         4.085667         1.451803         1.380007
 H         5.048003        -0.979881         0.430767
 H         1.384034        -2.106845        -0.473777
 H         1.395260        -1.526864         1.315490
