19
Iteration:  3968charge 0 multiplicity 1
 C         0.003449         0.251206        -0.247454
 C         1.528202        -0.063360        -0.099858
 C         2.298948         0.014984        -1.511107
 C         3.731092         0.193973        -1.068152
 C         3.654263         0.823931         0.402651
 O         2.248962         1.035255         0.675319
 C         4.064729        -0.602394         0.189898
 O         3.170249        -1.693335         0.526305
 C         1.826202        -1.291806         0.674866
 H        -0.321116         1.276382         0.030117
 H        -0.349432         0.137418        -1.345885
 H        -0.540339        -0.374411         0.386335
 H         2.184315        -0.911548        -2.138707
 H         1.761420         0.911353        -1.968835
 H         4.425727         0.534985        -1.813773
 H         4.229424         1.652012         0.916272
 H         5.112095        -0.968866         0.148163
 H         1.230971        -2.129485         0.520403
 H         1.703419        -1.135653         1.832008
