19
Iteration:  2351charge 0 multiplicity 1
 C         0.036184         0.406264        -0.207030
 C         1.530291         0.078355        -0.173820
 C         2.487301         0.951370        -1.043556
 C         3.798464         0.765136        -0.262728
 C         3.397174         0.232794         1.093098
 O         1.973194         0.343469         1.183111
 C         4.016692        -0.742279         0.051750
 O         3.352371        -1.709650        -0.643397
 C         1.929290        -1.552763        -0.355931
 H        -0.580531        -0.298871         0.475337
 H        -0.146567         1.507096        -0.026068
 H        -0.397339         0.289985        -1.157193
 H         2.390874         0.507885        -2.124632
 H         2.039706         1.980317        -0.822934
 H         4.642671         1.454640        -0.430974
 H         3.865795         0.303456         2.112578
 H         5.011158        -1.085771         0.491174
 H         1.289952        -2.105560        -1.101131
 H         1.752542        -2.000972         0.589285
