19
Iteration:  4090charge 0 multiplicity 1
 C         0.012981         0.300695        -0.269479
 C         1.554370        -0.045288        -0.073812
 C         2.211666         0.031366        -1.441773
 C         3.694889         0.195789        -1.083631
 C         3.630943         0.793691         0.281544
 O         2.269876         1.028653         0.595437
 C         4.049354        -0.616592         0.169809
 O         3.282921        -1.670561         0.657873
 C         1.767500        -1.352045         0.709443
 H        -0.615633        -0.356318         0.384565
 H        -0.346744         1.254489         0.004198
 H        -0.248371         0.124839        -1.245690
 H         2.091672        -0.751246        -2.140414
 H         1.941269         1.045756        -1.916697
 H         4.541997         0.414005        -1.807988
 H         4.250600         1.644609         0.592482
 H         5.100760        -0.777281         0.407624
 H         1.244351        -2.197066         0.176989
 H         1.562750        -1.440840         1.871437
