19
Iteration:  3930charge 0 multiplicity 1
 C         0.036682         0.453597        -0.183677
 C         1.502513        -0.017340        -0.057695
 C         2.351506        -0.224777        -1.474618
 C         3.729151         0.281472        -1.011470
 C         3.571644         0.864027         0.394170
 O         2.136456         1.083311         0.705033
 C         4.107770        -0.586489         0.219098
 O         3.241076        -1.727445         0.386116
 C         1.814380        -1.420836         0.620901
 H         0.038824         1.323974        -0.852364
 H        -0.516436        -0.335080        -0.605110
 H        -0.490422         0.563436         0.820346
 H         2.306204        -1.230127        -1.976569
 H         2.020566         0.509054        -2.193149
 H         4.423606         0.543534        -1.835779
 H         4.301250         1.515330         0.881214
 H         5.134135        -0.851027         0.328936
 H         1.103250        -2.221224         0.076865
 H         1.696527        -1.322519         1.698851
