19
Iteration:   280
 C         0.063040         0.399964        -0.184765
 C         1.559634         0.127912        -0.051171
 C         2.397740         1.390587         0.329962
 C         3.743232         0.689070         0.579108
 C         3.253771        -0.771143         1.113766
 O         1.810055        -0.870071         0.962721
 C         4.097095        -0.669217        -0.137948
 O         3.449063        -1.153566        -1.353564
 C         2.097827        -0.422371        -1.417607
 H         0.000619         1.455350        -0.692315
 H        -0.414420        -0.445144        -0.734765
 H        -0.316632         0.460714         0.795883
 H         2.420433         2.220655        -0.494515
 H         1.932712         1.842282         1.219535
 H         4.618735         1.109334         1.161834
 H         3.484638        -1.271919         2.086358
 H         5.199676        -0.959334        -0.158903
 H         2.374729         0.464421        -1.971762
 H         1.420611        -1.108366        -1.894794
