19
Iteration:  3554charge 0 multiplicity 1
 C         0.140666         0.440204        -0.227855
 C         1.548817        -0.031141        -0.150877
 C         2.336750         0.165077        -1.440088
 C         3.787287         0.342057        -0.927062
 C         3.440754         0.808674         0.512559
 O         2.114262         0.867522         0.823295
 C         3.984335        -0.565751         0.178590
 O         3.236254        -1.829728         0.230356
 C         1.895456        -1.532241         0.511382
 H        -0.545292        -0.296570        -0.551913
 H        -0.131131         0.801912         0.844937
 H         0.008424         1.330630        -0.839310
 H         2.347015        -0.530889        -2.252380
 H         1.974741         1.158867        -1.906981
 H         4.543756         0.775957        -1.550410
 H         3.944868         1.539498         1.201267
 H         4.949806        -0.802624         0.571072
 H         1.250886        -2.395756         0.281236
 H         1.859946        -1.340261         1.737483
