19
Iteration:  4510charge 0 multiplicity 1
 C        -0.020125         0.363610        -0.223336
 C         1.493185         0.010387        -0.124485
 C         2.242805        -0.146200        -1.364191
 C         3.685128         0.063796        -1.039680
 C         3.612331         0.895671         0.254722
 O         2.204604         1.159381         0.494582
 C         4.142257        -0.612886         0.264209
 O         3.265027        -1.651865         0.597310
 C         1.888134        -1.426768         0.701026
 H        -0.228896         0.781321        -1.159545
 H        -0.633255        -0.636561        -0.350679
 H        -0.265256         1.090334         0.636746
 H         1.977230        -1.155058        -1.787548
 H         1.959261         0.610011        -2.009300
 H         4.406792         0.413856        -1.790952
 H         4.253195         1.804360         0.470970
 H         5.109778        -0.824454         0.759818
 H         1.167129        -2.209056         0.299296
 H         1.642892        -1.379037         1.720749
