19
Iteration:  4739charge 0 multiplicity 1
 C         0.037183         0.254408        -0.123861
 C         1.540272        -0.041799        -0.101378
 C         2.366700        -0.257676        -1.482624
 C         3.743851         0.167600        -1.071725
 C         3.555314         0.870833         0.253263
 O         2.203254         1.155085         0.409103
 C         4.005302        -0.613263         0.138080
 O         3.171972        -1.690355         0.611664
 C         1.858928        -1.181328         0.917974
 H        -0.452946        -0.360992         0.517065
 H        -0.136419         1.357844         0.041215
 H        -0.372850         0.071828        -1.115954
 H         2.376481        -1.330208        -1.901219
 H         2.034969         0.437673        -2.249685
 H         4.478746         0.424029        -1.865794
 H         4.302369         1.569616         0.529487
 H         5.024439        -0.843240         0.514122
 H         1.244799        -1.990819         0.768931
 H         1.627155        -0.770555         1.947988
