19
Iteration:  4285
 C         0.034947         0.318919        -0.158647
 C         1.541747         0.007536        -0.110138
 C         2.309073        -0.059988        -1.482918
 C         3.746376         0.293805        -1.062172
 C         3.615579         0.838567         0.352351
 O         2.248783         0.952943         0.651186
 C         4.083653        -0.609004         0.162667
 O         3.196777        -1.585560         0.674007
 C         1.731876        -1.445807         0.507536
 H        -0.272514         0.790054         0.920857
 H        -0.216064         1.118804        -0.946233
 H        -0.589757        -0.573770        -0.219879
 H         2.361528        -1.058852        -1.887808
 H         1.798075         0.540293        -2.274914
 H         4.562666         0.438658        -1.812430
 H         4.132100         1.701504         0.652208
 H         5.166915        -0.894256         0.278679
 H         1.199220        -2.283835        -0.053455
 H         1.396012        -1.399039         1.522498
