19
Iteration:  2358charge 0 multiplicity 1
 C         0.023982         0.353132        -0.214294
 C         1.500462         0.035199        -0.177510
 C         2.463558         0.944025        -0.996365
 C         3.855836         0.734439        -0.242716
 C         3.385052         0.274159         1.070709
 O         2.005826         0.347482         1.163977
 C         4.075719        -0.724604         0.056961
 O         3.309319        -1.736921        -0.592560
 C         1.874513        -1.468399        -0.412288
 H        -0.535393        -0.396497         0.352571
 H        -0.190965         1.317203         0.321563
 H        -0.354844         0.400380        -1.281459
 H         2.520555         0.715272        -2.118792
 H         2.231937         1.969129        -0.897984
 H         4.550356         1.549809        -0.405119
 H         3.891296         0.528755         1.998742
 H         5.061116        -1.164476         0.302901
 H         1.321981        -2.134419        -1.178855
 H         1.731532        -1.971898         0.614625
