19
Iteration:  1208
 C         0.085527         0.361539        -0.161159
 C         1.616666         0.119563        -0.153985
 C         2.496263         1.292145        -0.469579
 C         3.783765         0.790978         0.199234
 C         3.331122        -0.213848         1.260141
 O         1.878490        -0.364748         1.173002
 C         4.052694        -0.715288         0.027749
 O         3.339224        -1.453332        -0.962504
 C         1.923656        -1.057907        -1.107993
 H        -0.048627         0.827980         0.801703
 H        -0.315298         1.065070        -0.962292
 H        -0.372206        -0.640197        -0.144349
 H         2.655499         1.370150        -1.571327
 H         1.955672         2.295807         0.034829
 H         4.717099         1.375580         0.167577
 H         3.725176        -0.199191         2.296138
 H         5.117957        -1.089817        -0.021389
 H         1.808234        -0.518622        -2.136232
 H         1.213069        -1.984263        -1.103622
