19
Iteration:  1539
 C         0.060998         0.408847        -0.358570
 C         1.476922        -0.006209        -0.092326
 C         2.540337         1.010718        -0.651173
 C         3.914244         0.802489         0.159334
 C         3.357147        -0.137132         1.254859
 O         1.954183        -0.045608         1.341753
 C         4.010829        -0.688062        -0.007306
 O         3.293651        -1.244043        -1.118174
 C         1.902467        -1.369970        -0.746982
 H        -0.765590         0.507800         0.513171
 H         0.123865         1.373665        -0.855715
 H        -0.408712        -0.326410        -1.039079
 H         2.765256         0.937308        -1.758853
 H         2.077808         2.039172        -0.394744
 H         4.658337         1.561783         0.182768
 H         3.819401        -0.364609         2.209748
 H         4.990160        -1.183751         0.303178
 H         1.300754        -1.602342        -1.598357
 H         1.735920        -2.196785         0.027071
