19
Iteration:  2135charge 0 multiplicity 1
 C         0.078876         0.331041        -0.258642
 C         1.510296         0.052536        -0.144055
 C         2.555629         0.896057        -0.948110
 C         3.853625         0.821016        -0.084094
 C         3.380153         0.095940         1.154742
 O         1.950278         0.208403         1.275332
 C         4.110348        -0.710336         0.064194
 O         3.252691        -1.491382        -0.892551
 C         1.794496        -1.426801        -0.430138
 H        -0.486255        -0.544375         0.170763
 H        -0.270097         1.211766         0.291851
 H        -0.158041         0.334445        -1.278924
 H         2.803476         0.431980        -1.865573
 H         2.192231         1.944261        -1.167222
 H         4.650097         1.540737         0.051356
 H         3.859993         0.242995         2.088072
 H         5.166145        -1.106515         0.193541
 H         1.290642        -1.651666        -1.367303
 H         1.717150        -2.225712         0.375708
