19
Iteration:  1909
 C         0.115388         0.318504        -0.211441
 C         1.566387         0.076943        -0.101345
 C         2.538461         1.110374        -0.829772
 C         3.816658         0.763275        -0.079221
 C         3.298305         0.063441         1.241778
 O         1.929962         0.032973         1.255924
 C         4.029047        -0.770503         0.092512
 O         3.330296        -1.517981        -0.990105
 C         1.886414        -1.289802        -0.627469
 H        -0.458371        -0.656529         0.027081
 H        -0.138838         1.055224         0.560863
 H        -0.270723         0.662175        -1.195729
 H         2.546316         0.819935        -1.942118
 H         2.301711         2.100229        -0.605216
 H         4.677827         1.467180        -0.138737
 H         3.674746         0.099323         2.259413
 H         5.033662        -1.057256         0.244907
 H         1.359214        -1.534332        -1.556046
 H         1.520809        -2.106648         0.131674
