19
Iteration:  4301
 C         0.101556         0.312482        -0.191176
 C         1.530715        -0.040955        -0.180181
 C         2.324791        -0.100653        -1.588154
 C         3.663626         0.238426        -1.070683
 C         3.583085         0.820357         0.340350
 O         2.233459         0.920558         0.786882
 C         4.004941        -0.561439         0.179466
 O         3.197246        -1.634754         0.570573
 C         1.845959        -1.248224         0.671262
 H        -0.243526         0.451954         0.733596
 H        -0.081369         1.177563        -0.766886
 H        -0.407088        -0.520674        -0.752991
 H         2.201855        -1.138279        -2.011467
 H         1.982778         0.628372        -2.318211
 H         4.455914         0.614828        -1.692366
 H         4.295458         1.555096         0.843671
 H         5.006784        -0.849978         0.348217
 H         1.338259        -2.082990         0.179701
 H         1.327149        -1.066596         1.673701
