19
Iteration:  4197
 C         0.066599         0.274811        -0.233782
 C         1.554196        -0.005352        -0.087195
 C         2.290729        -0.029945        -1.456946
 C         3.660537         0.224521        -1.081379
 C         3.658049         0.865239         0.276111
 O         2.305529         0.947332         0.753617
 C         4.069071        -0.572807         0.132865
 O         3.185213        -1.589806         0.721509
 C         1.725369        -1.396845         0.518706
 H        -0.295780         0.852869         0.739459
 H        -0.209723         0.872170        -1.185098
 H        -0.463328        -0.652672        -0.148152
 H         2.175883        -0.922257        -2.066254
 H         1.941699         0.905933        -1.997861
 H         4.331225         0.323479        -1.982840
 H         4.169318         1.658004         0.774416
 H         5.063196        -1.017360         0.175418
 H         1.300279        -2.124493        -0.264872
 H         1.269388        -1.545456         1.427217
