19
Iteration:  4433
 C         0.082166         0.341238        -0.245046
 C         1.515375         0.002530        -0.069937
 C         2.183232         0.029628        -1.508613
 C         3.613791        -0.034239        -1.130646
 C         3.598993         0.850107         0.217671
 O         2.237114         1.062895         0.683818
 C         4.060801        -0.583878         0.266484
 O         3.323109        -1.546037         0.861026
 C         1.852444        -1.452421         0.450604
 H        -0.456980        -0.495510        -0.597914
 H        -0.286312         0.481020         0.869552
 H        -0.114004         1.294001        -0.914337
 H         1.835329        -0.967896        -1.932196
 H         1.892883         0.836947        -2.133262
 H         4.442270         0.186508        -1.921478
 H         4.252363         1.568945         0.610497
 H         5.167861        -0.717235         0.475220
 H         1.561811        -2.150208        -0.357549
 H         1.287142        -1.752964         1.313200
