19
Iteration:   429charge 0 multiplicity 1
 C        -0.057675         0.319277        -0.160686
 C         1.585894         0.134548        -0.150712
 C         2.487804         1.367073         0.153579
 C         3.819660         0.647528         0.588832
 C         3.258554        -0.673684         1.174902
 O         1.849498        -0.649628         1.045572
 C         4.074613        -0.718598        -0.095886
 O         3.411425        -1.129914        -1.320995
 C         2.102130        -0.595505        -1.403068
 H        -0.335601         0.728561        -1.144201
 H        -0.496343        -0.642979        -0.057164
 H        -0.392698         1.151712         0.610884
 H         2.487961         2.100352        -0.654497
 H         2.009187         1.887372         1.078115
 H         4.598450         1.240604         1.150165
 H         3.560412        -1.042767         2.159705
 H         5.081248        -1.227476        -0.108055
 H         2.119680         0.154058        -2.239763
 H         1.361387        -1.308265        -1.828573
