19
Iteration:  3294charge 0 multiplicity 1
 C         0.060635         0.399632        -0.262086
 C         1.492668        -0.069757        -0.152527
 C         2.336887         0.419814        -1.293183
 C         3.765763         0.491567        -0.824617
 C         3.534007         0.737444         0.679214
 O         2.165082         0.790388         0.846075
 C         4.014237        -0.665514         0.252572
 O         3.264450        -1.828444         0.176424
 C         1.849743        -1.595347         0.199392
 H        -0.530078        -0.464769        -0.191356
 H        -0.123876         0.936724         0.711949
 H        -0.002014         0.984087        -1.120604
 H         2.101332        -0.205344        -2.279737
 H         1.952934         1.373028        -1.563143
 H         4.576790         0.965635        -1.439342
 H         4.013068         1.605162         1.066155
 H         5.097778        -0.770157         0.262155
 H         1.356866        -2.357168        -0.447001
 H         1.460738        -1.706310         1.336940
