19
Iteration:  3953
 C         0.128573         0.292269        -0.234434
 C         1.559516         0.031984        -0.073176
 C         2.257636        -0.084694        -1.396001
 C         3.683515         0.271750        -1.008860
 C         3.583865         0.841865         0.338097
 O         2.250914         0.994447         0.682392
 C         4.013359        -0.583999         0.197229
 O         3.190597        -1.683796         0.387078
 C         1.805510        -1.332749         0.701485
 H         0.050888         1.358581        -0.293954
 H        -0.190785        -0.123937        -1.177430
 H        -0.540088        -0.326341         0.476219
 H         2.140007        -1.183371        -1.781668
 H         2.010091         0.570761        -2.219736
 H         4.562537         0.398991        -1.693506
 H         4.241675         1.571727         0.671355
 H         5.013140        -0.815382         0.619721
 H         1.190473        -2.198199         0.126618
 H         1.497218        -1.073760         1.749663
