19
Iteration:  2993charge 0 multiplicity 1
 C        -0.011345         0.253247        -0.215893
 C         1.535315         0.090767        -0.137380
 C         2.384927         0.602135        -1.314515
 C         3.737585         0.588262        -0.720304
 C         3.600479         0.577047         0.857415
 O         2.192353         0.567306         1.080402
 C         4.100250        -0.671786         0.122455
 O         3.174856        -1.752197         0.154596
 C         1.814045        -1.443775        -0.183654
 H        -0.449395         0.386507         0.820048
 H        -0.502566         0.972253        -0.881226
 H        -0.393797        -0.649584        -0.588532
 H         2.329285        -0.060532        -2.119032
 H         1.888567         1.556598        -1.871606
 H         4.657726         0.983294        -1.147644
 H         4.120473         1.332215         1.532912
 H         5.077608        -1.076417         0.106073
 H         1.610971        -1.862987        -1.113159
 H         1.275176        -2.203071         0.496795
