19
Iteration:  4571
 C        -0.070393         0.237117        -0.210119
 C         1.534613        -0.035960        -0.092080
 C         2.285318        -0.100188        -1.567518
 C         3.762076         0.087286        -1.067115
 C         3.629930         0.857105         0.253852
 O         2.236951         1.068513         0.489792
 C         4.099857        -0.619388         0.215792
 O         3.228570        -1.617258         0.701957
 C         1.802342        -1.216363         0.812026
 H        -0.073139         1.360338         0.121195
 H        -0.419027         0.081232        -1.180953
 H        -0.795519        -0.344777         0.428299
 H         2.070733        -1.059447        -2.041174
 H         1.800681         0.749868        -2.231397
 H         4.487556         0.186085        -1.945768
 H         4.230031         1.637539         0.587888
 H         5.178138        -0.809565         0.470771
 H         1.280537        -2.101163         0.452791
 H         1.693786        -1.050148         2.013629
