19
Iteration:   710
 C         0.045310         0.416878        -0.183482
 C         1.547608         0.096711        -0.175593
 C         2.490298         1.321600        -0.093510
 C         3.793074         0.730897         0.490669
 C         3.299701        -0.475648         1.229372
 O         1.917936        -0.641646         1.064778
 C         4.112713        -0.724377        -0.009937
 O         3.366867        -1.178941        -1.134958
 C         1.955991        -0.769900        -1.380168
 H        -0.292959         1.446655        -0.092837
 H        -0.462219        -0.058421        -0.942772
 H        -0.445603        -0.086323         0.701861
 H         2.589937         1.728418        -1.093092
 H         2.044276         2.048536         0.516557
 H         4.561568         1.381249         0.869258
 H         3.679681        -1.022032         2.099343
 H         5.068443        -1.270010         0.177146
 H         1.834218        -0.221884        -2.295590
 H         1.350486        -1.630078        -1.495100
