19
Iteration:   795
 C         0.004373         0.302325        -0.297774
 C         1.629682         0.129047        -0.080056
 C         2.617580         1.327595        -0.146628
 C         3.802370         0.688304         0.469145
 C         3.254824        -0.525862         1.198432
 O         1.859505        -0.490548         1.218452
 C         3.987628        -0.739818        -0.074040
 O         3.392660        -1.069801        -1.308802
 C         1.971671        -0.861565        -1.165269
 H        -0.428982        -0.506799         0.287415
 H        -0.357934         1.297091         0.064164
 H        -0.222262         0.082922        -1.345618
 H         2.671673         1.604260        -1.263194
 H         2.158915         2.169506         0.385756
 H         4.504387         1.276642         1.022166
 H         3.767895        -0.778904         2.158437
 H         4.972581        -1.290149         0.044498
 H         1.596935        -0.533619        -2.150525
 H         1.503481        -1.845238        -0.753468
