19
Iteration:  4617
 C         0.047794         0.308072        -0.038283
 C         1.522825        -0.022095        -0.170937
 C         2.208895        -0.128004        -1.581986
 C         3.688970         0.050039        -1.154719
 C         3.677043         0.860881         0.213697
 O         2.258149         1.043102         0.499069
 C         4.053023        -0.553993         0.247040
 O         3.173921        -1.482740         0.961568
 C         1.856950        -1.373646         0.553231
 H        -0.165244         1.058985         0.677441
 H        -0.233171         0.507746        -1.072251
 H        -0.528286        -0.674835         0.126711
 H         2.023519        -1.083220        -2.143329
 H         1.929553         0.674255        -2.314719
 H         4.598023         0.158935        -1.730316
 H         4.265780         1.801747         0.460388
 H         5.056534        -0.966879         0.322068
 H         1.661471        -2.215639        -0.178080
 H         1.236504        -1.528485         1.557501
