19
Iteration:  4438charge 0 multiplicity 1
 C         0.009548         0.335393        -0.217172
 C         1.514708         0.032609        -0.100561
 C         2.183384         0.001310        -1.469516
 C         3.705969         0.009831        -1.131200
 C         3.603527         0.856422         0.194611
 O         2.263794         1.017835         0.668028
 C         4.056584        -0.571559         0.228242
 O         3.264094        -1.553844         0.876557
 C         1.886195        -1.423390         0.466409
 H        -0.512282        -0.551068        -0.698162
 H        -0.420801         0.292673         0.757055
 H        -0.048924         1.267408        -0.665273
 H         1.803373        -0.919778        -1.907213
 H         2.047011         0.941164        -2.120948
 H         4.352847         0.111675        -1.944250
 H         4.332730         1.618570         0.620060
 H         5.096824        -0.685615         0.418619
 H         1.664442        -2.262010        -0.221876
 H         1.147510        -1.734676         1.293471
