19
Iteration:  4050
 C         0.011413         0.432285        -0.121395
 C         1.469574        -0.026402        -0.173858
 C         2.274676        -0.080587        -1.578074
 C         3.686997         0.173012        -1.053710
 C         3.608299         0.819862         0.329665
 O         2.275936         0.873998         0.676436
 C         4.083560        -0.558401         0.173386
 O         3.259468        -1.536867         0.797912
 C         1.813055        -1.415458         0.461652
 H        -0.202381         0.365228         0.976284
 H         0.001953         1.490058        -0.394213
 H        -0.820046        -0.190566        -0.733062
 H         2.024948        -1.050869        -2.077073
 H         1.832415         0.650434        -2.200166
 H         4.515154         0.448454        -1.771115
 H         4.104094         1.700699         0.557646
 H         5.185062        -0.784512         0.375539
 H         1.584827        -2.206478        -0.220295
 H         1.264451        -1.566065         1.336209
