19
Iteration:  1779
 C         0.014079         0.284497        -0.270128
 C         1.557243         0.089501        -0.188334
 C         2.532977         1.170975        -0.623768
 C         3.866603         0.785628        -0.021601
 C         3.397100         0.026525         1.176275
 O         1.962860        -0.054296         1.246414
 C         4.070636        -0.712242         0.015864
 O         3.217372        -1.596436        -0.783154
 C         1.894767        -1.232725        -0.823999
 H        -0.177839         1.324229        -0.665113
 H        -0.337174        -0.443579        -0.980237
 H        -0.341029         0.095862         0.765632
 H         2.492903         1.424439        -1.747174
 H         2.176622         2.173343        -0.222944
 H         4.695295         1.540071        -0.089014
 H         4.064203         0.009840         2.085528
 H         5.040328        -1.109134         0.189721
 H         1.590859        -1.279631        -1.929437
 H         1.326478        -1.922904        -0.124621
