19
Iteration:  1683
 C         0.092037         0.341836        -0.137931
 C         1.571714         0.071967        -0.125443
 C         2.514013         1.230809        -0.727345
 C         3.749837         0.813992        -0.062624
 C         3.312882        -0.003466         1.208887
 O         1.920271        -0.102615         1.231691
 C         4.063997        -0.738007         0.075957
 O         3.314045        -1.659904        -0.811950
 C         1.958597        -1.201046        -0.928495
 H        -0.373142        -0.341308        -0.845443
 H        -0.239185         0.077894         0.881125
 H        -0.112263         1.415239        -0.417576
 H         2.560983         1.435705        -1.756241
 H         2.255329         2.291779        -0.316171
 H         4.671708         1.413771         0.111318
 H         3.799876         0.124446         2.222087
 H         5.027263        -1.126164         0.281316
 H         1.578154        -0.894216        -2.061925
 H         1.341462        -2.048564        -0.586484
