19
Iteration:  2101charge 0 multiplicity 1
 C         0.070438         0.402701        -0.295864
 C         1.548698         0.042886        -0.208747
 C         2.467336         1.067993        -0.857633
 C         3.767447         0.767590        -0.199144
 C         3.389109         0.170117         1.159388
 O         1.962510         0.087902         1.356348
 C         4.056705        -0.731208         0.079671
 O         3.337140        -1.632023        -0.792672
 C         1.898727        -1.422442        -0.561049
 H        -0.169154         0.401956         0.826785
 H        -0.072007         1.352451        -0.814570
 H        -0.555421        -0.254220        -0.821551
 H         2.497119         0.957201        -1.877633
 H         2.032957         2.119802        -0.628829
 H         4.682020         1.353849        -0.251165
 H         3.929391         0.425309         2.041024
 H         5.082001        -1.030963         0.189249
 H         1.401910        -1.720075        -1.469019
 H         1.414298        -2.120395         0.253977
