19
Iteration:  2565
 C         0.121699         0.301118        -0.277126
 C         1.544837         0.036092        -0.112474
 C         2.442136         0.728969        -1.184248
 C         3.795460         0.707507        -0.507139
 C         3.467552         0.437413         1.097525
 O         2.069674         0.352501         1.237034
 C         4.001291        -0.662331         0.166530
 O         3.225077        -1.706346        -0.441744
 C         1.823645        -1.432056        -0.294601
 H        -0.312319        -0.064709         0.667207
 H         0.085421         1.429999        -0.174720
 H        -0.301443        -0.037512        -1.148621
 H         2.449193         0.178912        -2.180281
 H         2.006472         1.730076        -1.333140
 H         4.574015         1.348762        -0.892360
 H         3.996453         0.801126         1.972389
 H         5.068423        -0.935250         0.382983
 H         1.381202        -1.737544        -1.265379
 H         1.395375        -2.093355         0.462388
