19
Iteration:  1942
 C        -0.030410         0.454408        -0.202593
 C         1.506972        -0.006922        -0.150081
 C         2.547416         1.010054        -0.825286
 C         3.823687         0.835310         0.011105
 C         3.368408         0.013441         1.200691
 O         1.992756         0.098892         1.230579
 C         4.113302        -0.703171         0.100728
 O         3.357713        -1.479186        -0.964482
 C         1.843618        -1.493102        -0.641158
 H        -0.715778        -0.293574        -0.695491
 H        -0.399896         0.545865         0.845703
 H        -0.182671         1.482319        -0.708584
 H         2.566412         0.965278        -1.977903
 H         2.149387         1.955242        -0.834614
 H         4.528664         1.669565         0.043097
 H         3.691016        -0.070129         2.188208
 H         5.096816        -1.117942         0.207582
 H         1.306089        -1.683705        -1.592704
 H         1.699874        -2.332798         0.206752
