19
Iteration:  4230
 C         0.013705         0.225376        -0.106997
 C         1.526770        -0.003643        -0.199639
 C         2.264749         0.135316        -1.598673
 C         3.675193         0.151659        -1.107183
 C         3.624774         0.772288         0.307341
 O         2.272526         0.940980         0.679082
 C         4.057681        -0.647740         0.232841
 O         3.212597        -1.557472         0.889848
 C         1.846841        -1.357184         0.418358
 H        -0.024919         1.085784         0.722808
 H        -0.565509         0.629228        -1.024682
 H        -0.515914        -0.654110         0.204107
 H         2.036758        -0.528402        -2.418849
 H         2.019332         1.199601        -1.925083
 H         4.416597         0.234435        -1.948378
 H         4.257200         1.500235         0.734228
 H         5.145787        -0.902630         0.257453
 H         1.510367        -2.079036        -0.407908
 H         1.268414        -1.551739         1.246453
