19
Iteration:  2360charge 0 multiplicity 1
 C         0.020634         0.342378        -0.224298
 C         1.502124         0.022593        -0.179491
 C         2.462439         0.937682        -0.977140
 C         3.863444         0.729807        -0.250090
 C         3.385754         0.279076         1.064371
 O         2.008429         0.345494         1.161302
 C         4.084551        -0.716758         0.064204
 O         3.295101        -1.739261        -0.584339
 C         1.865075        -1.451481        -0.412965
 H        -0.558925        -0.468354         0.349652
 H        -0.183812         1.278963         0.401684
 H        -0.314506         0.414862        -1.245151
 H         2.559660         0.752302        -2.158544
 H         2.263912         2.010619        -0.933077
 H         4.558560         1.552993        -0.401799
 H         3.912747         0.594254         1.995317
 H         5.115657        -1.171368         0.262858
 H         1.329926        -2.098668        -1.232544
 H         1.670350        -1.928192         0.580618
