19
Iteration:  3373charge 0 multiplicity 1
 C         0.077687         0.288408        -0.178317
 C         1.572713         0.017157        -0.122570
 C         2.398014         0.442065        -1.393926
 C         3.754773         0.382133        -0.830647
 C         3.482384         0.684399         0.577025
 O         2.100321         0.910272         0.799041
 C         4.011260        -0.716197         0.248062
 O         3.240419        -1.826344         0.200737
 C         1.858700        -1.485316         0.275882
 H        -0.133387         0.937722        -1.033703
 H        -0.411260        -0.671018        -0.091200
 H        -0.211624         0.688728         0.743160
 H         2.236316        -0.287248        -2.301409
 H         2.082841         1.467977        -1.613112
 H         4.574611         0.806017        -1.369324
 H         4.141015         1.354261         1.178235
 H         5.083725        -0.767716         0.507350
 H         1.343057        -2.093036        -0.411440
 H         1.397116        -1.757647         1.365232
