19
Iteration:  2665
 C        -0.035138         0.319510        -0.159018
 C         1.535838         0.024207        -0.165430
 C         2.426499         0.840671        -1.183951
 C         3.765482         0.691852        -0.574177
 C         3.566666         0.414758         0.985532
 O         2.094590         0.418689         1.111073
 C         4.056932        -0.658195         0.105403
 O         3.243376        -1.785768        -0.077746
 C         1.837760        -1.477378        -0.364847
 H        -0.278737         0.647618        -1.204348
 H        -0.497181        -0.671281         0.032459
 H        -0.367135         1.098736         0.433202
 H         2.295958         0.377169        -2.241542
 H         2.223258         1.861321        -1.397121
 H         4.639669         1.257797        -0.967398
 H         4.115118         0.662078         1.929602
 H         5.075936        -0.928042         0.289409
 H         1.696922        -1.746839        -1.517999
 H         1.260393        -2.189281         0.274662
