19
Iteration:  1298charge 0 multiplicity 1
 C         0.018022         0.349885        -0.295429
 C         1.569255         0.034666        -0.129237
 C         2.499063         1.234973        -0.476558
 C         3.818200         0.754208         0.159643
 C         3.409628        -0.129912         1.273936
 O         1.979110        -0.216443         1.269481
 C         4.053371        -0.669571        -0.062836
 O         3.293091        -1.487662        -0.913791
 C         1.889719        -1.100120        -1.028157
 H        -0.448789        -0.499367        -0.877232
 H        -0.585143         0.572433         0.569373
 H        -0.229693         1.150402        -0.979460
 H         2.473498         1.211937        -1.540541
 H         2.089219         2.186389         0.058916
 H         4.659899         1.413804         0.275846
 H         3.919932        -0.384642         2.171223
 H         5.055648        -1.013514         0.047076
 H         1.757963        -0.708913        -2.113007
 H         1.285635        -2.007239        -0.732137
