19
Iteration:  3196
 C         0.000280         0.393903        -0.210112
 C         1.560759        -0.003837        -0.167351
 C         2.288191         0.545678        -1.422262
 C         3.675850         0.525249        -0.812664
 C         3.522608         0.605637         0.682121
 O         2.135860         0.665660         0.972092
 C         4.084868        -0.707749         0.232211
 O         3.310058        -1.826141         0.285245
 C         1.904987        -1.507004         0.063216
 H        -0.058897         1.377164         0.244933
 H        -0.327718         0.623892        -1.301410
 H        -0.641497        -0.422889         0.137903
 H         2.273018        -0.067887        -2.498730
 H         1.972363         1.546393        -1.575760
 H         4.611098         0.918170        -1.272046
 H         4.086306         1.459340         1.219294
 H         5.113684        -0.996204         0.274908
 H         1.587450        -1.932380        -0.835906
 H         1.223017        -1.798632         0.998833
