19
Iteration:  2652
 C         0.056149         0.235486        -0.222219
 C         1.545179         0.033509        -0.134918
 C         2.377016         0.813498        -1.150131
 C         3.794606         0.687319        -0.504025
 C         3.552838         0.518352         0.924620
 O         2.177495         0.412838         1.183470
 C         4.009316        -0.680849         0.094917
 O         3.134320        -1.779079        -0.043472
 C         1.872258        -1.468570        -0.484955
 H        -0.286400         0.179343        -1.257829
 H        -0.627975        -0.406936         0.390962
 H        -0.138262         1.147619         0.196384
 H         2.447773         0.309681        -2.067576
 H         2.002168         1.891218        -1.184562
 H         4.581994         1.258389        -0.991692
 H         4.131582         0.952171         1.735425
 H         4.991001        -1.055814         0.143428
 H         1.667943        -1.684363        -1.644259
 H         1.174124        -2.036601         0.050011
