19
Iteration:  2030charge 0 multiplicity 1
 C         0.036893         0.224228        -0.090594
 C         1.561096         0.092093        -0.194119
 C         2.436243         1.234452        -0.820691
 C         3.829075         0.768049        -0.285412
 C         3.405011         0.149654         1.118407
 O         2.023727        -0.050731         1.158891
 C         3.983143        -0.769116         0.111246
 O         3.193405        -1.750594        -0.392242
 C         2.032844        -1.105310        -0.910445
 H        -0.154021         1.224410        -0.420717
 H        -0.618134        -0.582286        -0.494118
 H        -0.309889         0.294070         1.018250
 H         2.336239         1.164942        -1.983690
 H         2.219242         2.232962        -0.531844
 H         4.762705         1.258161        -0.485568
 H         3.850181         0.440084         2.048319
 H         5.073443        -1.076882         0.207845
 H         2.077349        -0.906517        -2.047650
 H         1.292897        -2.013409        -0.841468
