19
Iteration:  3639
 C         0.017723         0.330869        -0.180257
 C         1.500019        -0.054352        -0.189631
 C         2.304478         0.391805        -1.508352
 C         3.725679         0.268888        -1.024866
 C         3.616347         0.712758         0.450755
 O         2.184787         0.838796         0.733090
 C         4.018730        -0.650190         0.197101
 O         3.242150        -1.630808         0.677176
 C         1.863721        -1.550742         0.366121
 H        -0.170998         1.107406        -0.889208
 H        -0.701059        -0.461757        -0.250198
 H        -0.042286         0.852875         0.815518
 H         2.330087        -0.308709        -2.283942
 H         1.814837         1.401831        -1.728080
 H         4.543677         0.535796        -1.665648
 H         4.270315         1.482546         0.971727
 H         5.065012        -0.868948         0.125593
 H         1.564896        -2.419644        -0.342228
 H         1.356576        -1.662988         1.241111
