19
Iteration:  2662
 C        -0.041603         0.298691        -0.168785
 C         1.558715         0.026492        -0.165800
 C         2.396286         0.829694        -1.178240
 C         3.762057         0.688022        -0.553835
 C         3.585167         0.443889         0.973938
 O         2.111741         0.419717         1.125251
 C         4.047571        -0.648879         0.105792
 O         3.202734        -1.779249        -0.071257
 C         1.857555        -1.493706        -0.392238
 H        -0.217440         0.537494        -1.206796
 H        -0.516670        -0.661560         0.083542
 H        -0.290404         1.183341         0.367349
 H         2.394137         0.378281        -2.101570
 H         2.272094         1.953445        -1.419014
 H         4.586509         1.240503        -0.984601
 H         4.152580         0.607547         1.869567
 H         5.040341        -0.990370         0.292308
 H         1.701060        -1.725269        -1.493408
 H         1.275367        -2.140228         0.165742
