19
Iteration:   562
 C         0.049302         0.414003        -0.214233
 C         1.514572         0.067416        -0.069961
 C         2.626199         1.208207        -0.172704
 C         3.806891         0.599363         0.659111
 C         3.219323        -0.677318         1.168244
 O         1.812836        -0.604382         1.127507
 C         4.061773        -0.743062        -0.086001
 O         3.419103        -0.692684        -1.371907
 C         2.025448        -0.895637        -1.203731
 H        -0.614190        -0.018392         0.578456
 H        -0.389933         1.438984        -0.122071
 H        -0.281250         0.073373        -1.203012
 H         2.816102         1.447104        -1.220520
 H         2.291516         2.222872         0.318410
 H         4.481105         1.132809         1.297549
 H         3.422868        -1.062099         2.205997
 H         4.986834        -1.282348        -0.170970
 H         1.587077        -0.682520        -2.155717
 H         1.766016        -1.837731        -0.741346
