19
Iteration:   655
 C         0.023934         0.270971        -0.212196
 C         1.605423         0.089551        -0.116221
 C         2.445402         1.356480         0.057308
 C         3.747831         0.754401         0.464661
 C         3.346936        -0.481426         1.217811
 O         1.973640        -0.585417         1.012943
 C         4.055905        -0.745591        -0.069598
 O         3.165345        -1.394552        -1.103710
 C         2.149710        -0.531666        -1.395782
 H        -0.340640         0.223040        -1.251182
 H        -0.382261        -0.598951         0.215834
 H        -0.378393         1.213964         0.306699
 H         2.449519         1.967540        -0.844947
 H         2.030439         1.911248         0.822038
 H         4.636884         1.357098         0.537544
 H         3.598473        -0.694559         2.209533
 H         5.131556        -1.155059        -0.110367
 H         2.503699         0.379094        -1.998776
 H         1.438758        -1.146293        -1.932674
