19
Iteration:   549
 C        -0.047911         0.398070        -0.273831
 C         1.531400         0.164645        -0.191012
 C         2.619339         1.261923        -0.048766
 C         3.786983         0.584120         0.650624
 C         3.244319        -0.705018         1.209979
 O         1.820971        -0.607790         1.208196
 C         4.084939        -0.708789        -0.139851
 O         3.426921        -0.786812        -1.371330
 C         1.997850        -0.865772        -1.200552
 H        -0.384886         0.023243         0.678619
 H        -0.063190         1.408716        -0.438899
 H        -0.615429        -0.256563        -1.056554
 H         3.050832         1.457951        -1.035385
 H         2.254532         2.260890         0.457527
 H         4.456210         1.283853         1.120751
 H         3.768749        -1.195690         1.986909
 H         5.106812        -1.217773        -0.114122
 H         1.557001        -0.708146        -2.116132
 H         1.714074        -1.937588        -1.102493
