19
Iteration:   584charge 0 multiplicity 1
 C         0.146723         0.462755        -0.169264
 C         1.551671         0.079530        -0.213762
 C         2.563090         1.260458        -0.090170
 C         3.782921         0.658964         0.554364
 C         3.180747        -0.627615         1.238791
 O         1.781432        -0.694553         1.162880
 C         3.979836        -0.685782        -0.068097
 O         3.457625        -0.831589        -1.372838
 C         2.041295        -0.935545        -1.252192
 H        -0.439285        -0.322357         0.363292
 H        -0.030104         1.256276         0.622224
 H        -0.301557         0.808493        -1.094701
 H         2.854694         1.640381        -1.087273
 H         2.172006         2.186942         0.483584
 H         4.498362         1.414190         0.835200
 H         3.515388        -1.106625         2.222463
 H         4.919114        -1.174750        -0.001305
 H         1.762126        -0.563769        -2.197490
 H         1.684310        -1.927926        -0.940041
