19
Iteration:  3260
 C         0.028825         0.210871        -0.129512
 C         1.564366         0.103307        -0.182164
 C         2.417913         0.459926        -1.445888
 C         3.784606         0.459788        -0.862293
 C         3.557353         0.647244         0.683772
 O         2.179914         0.695144         0.957826
 C         3.997282        -0.621184         0.149108
 O         3.166758        -1.756294         0.397592
 C         1.843400        -1.401586        -0.019748
 H        -0.417394        -0.465784         0.515037
 H        -0.290899         1.206771         0.213999
 H        -0.608230         0.066645        -1.026150
 H         2.277432        -0.456514        -2.103621
 H         1.971719         1.355678        -1.858120
 H         4.648811         0.787312        -1.479512
 H         4.036193         1.447844         1.336786
 H         5.020212        -0.933867         0.245363
 H         1.600499        -2.094764        -0.857259
 H         1.314531        -1.860390         0.896792
