19
Iteration:   776
 C         0.029304         0.399750        -0.245817
 C         1.472478         0.054017        -0.153272
 C         2.551108         1.245475        -0.161255
 C         3.886601         0.599968         0.523521
 C         3.248107        -0.509249         1.260789
 O         1.821145        -0.436188         1.186320
 C         4.087126        -0.718711        -0.080037
 O         3.402700        -0.884613        -1.342591
 C         1.974125        -1.027226        -1.135853
 H        -0.491470         0.005928         0.691168
 H        -0.067695         1.408961        -0.480788
 H        -0.447449        -0.212122        -1.132339
 H         2.831959         1.625330        -1.146178
 H         2.291857         2.085241         0.432717
 H         4.749129         1.256758         0.703210
 H         3.560322        -1.128586         2.186815
 H         5.094329        -1.128005        -0.068767
 H         1.548379        -0.954204        -2.090627
 H         1.776576        -1.997163        -0.841637
