19
Iteration:     4charge 0 multiplicity 1
 C         0.059314         0.443515        -0.114157
 C         1.568454         0.107631        -0.093645
 C         2.467137         1.207355         0.430406
 C         3.709402         0.447009         0.855052
 C         3.182177        -0.980231         1.028057
 O         1.810145        -0.969402         0.808939
 C         4.048260        -0.643726        -0.153786
 O         3.504826        -0.607845        -1.437240
 C         2.100642        -0.325826        -1.447311
 H        -0.252031         0.561446         0.846160
 H        -0.093766         1.326855        -0.752894
 H        -0.414920        -0.436061        -0.625501
 H         2.699706         2.021027        -0.232999
 H         1.992665         1.671119         1.330534
 H         4.518304         0.790060         1.552161
 H         3.472924        -1.652895         1.866160
 H         5.143802        -1.018958        -0.143568
 H         2.010866         0.478710        -2.171448
 H         1.673953        -1.231143        -1.839125
