19
Iteration:  3053charge 0 multiplicity 1
 C        -0.006084         0.335441        -0.163400
 C         1.514322        -0.027106        -0.183668
 C         2.333072         0.606653        -1.321898
 C         3.788580         0.553616        -0.758716
 C         3.532615         0.623798         0.764988
 O         2.156499         0.615153         1.017121
 C         4.083542        -0.660285         0.170148
 O         3.218934        -1.816354         0.244781
 C         1.908648        -1.500242        -0.185977
 H        -0.631637        -0.526835        -0.030825
 H        -0.103224         0.955149         0.777920
 H        -0.349699         0.912005        -1.113774
 H         2.141679        -0.112925        -2.228014
 H         1.916856         1.547199        -1.437131
 H         4.486729         1.191557        -1.268288
 H         4.055141         1.242938         1.436387
 H         5.123924        -0.978893         0.400452
 H         1.739543        -1.897086        -1.274058
 H         1.182364        -1.933057         0.577405
