19
Iteration:   141charge 0 multiplicity 1
 C         0.029569         0.475232        -0.233717
 C         1.536780         0.103244        -0.081368
 C         2.559642         1.275234         0.366955
 C         3.755366         0.464666         0.938936
 C         3.253186        -0.898107         1.065917
 O         1.778746        -0.942985         0.890608
 C         4.072437        -0.588221        -0.147925
 O         3.488006        -0.592345        -1.477079
 C         2.042097        -0.611481        -1.407289
 H         0.055184         1.673589        -0.114085
 H        -0.427696         0.238397        -1.254202
 H        -0.628317         0.087299         0.567876
 H         2.841065         1.776409        -0.612458
 H         2.017219         2.027519         0.975178
 H         4.573983         0.920666         1.543995
 H         3.450031        -1.690294         1.830669
 H         5.101747        -1.009885        -0.232596
 H         1.621116        -0.133191        -2.352986
 H         1.557831        -1.626771        -1.148862
