19
Iteration:  3858
 C         0.010503         0.177086        -0.189837
 C         1.511282         0.076924        -0.144504
 C         2.176045         0.132166        -1.457298
 C         3.717377         0.207449        -1.036016
 C         3.712652         0.781939         0.353969
 O         2.307266         1.027752         0.719483
 C         4.104666        -0.716773         0.176029
 O         3.188718        -1.628837         0.745235
 C         1.784617        -1.354111         0.373326
 H        -0.188482        -0.514276        -0.988783
 H        -0.528961        -0.161044         0.796779
 H        -0.397354         1.179265        -0.384278
 H         1.909402        -0.654624        -2.197692
 H         1.837605         1.119753        -1.838505
 H         4.405128         0.400006        -1.900947
 H         4.317512         1.458295         0.854317
 H         5.200810        -0.834039         0.468563
 H         1.626145        -1.937277        -0.433377
 H         1.105424        -1.708148         1.173674
