19
Iteration:  4853charge 0 multiplicity 1
 C         0.036572         0.245944        -0.121494
 C         1.513573        -0.080557        -0.080753
 C         2.176214        -0.057978        -1.449060
 C         3.685702        -0.078766        -1.126073
 C         3.677000         0.860139         0.105391
 O         2.291395         1.184812         0.480367
 C         4.048514        -0.526132         0.348246
 O         3.200590        -1.534370         0.875676
 C         1.861665        -1.396156         0.520747
 H         0.009795         1.119400         0.662220
 H        -0.338523         0.354473        -1.083805
 H        -0.697467        -0.425220         0.399640
 H         1.813210        -0.845104        -2.075587
 H         2.042722         0.860302        -2.057641
 H         4.520630         0.071908        -1.734530
 H         4.353409         1.744483         0.247332
 H         5.047660        -0.810944         0.464748
 H         1.663311        -2.016042        -0.281168
 H         1.149271        -1.668075         1.287749
