19
Iteration:  2042
 C         0.109454         0.294688        -0.088526
 C         1.596876         0.104869        -0.160104
 C         2.452368         1.168677        -0.806058
 C         3.738479         0.746488        -0.200809
 C         3.435169         0.258313         1.105422
 O         2.066065        -0.072655         1.157964
 C         4.026252        -0.711819         0.106397
 O         3.136557        -1.735096        -0.415280
 C         1.947989        -1.235278        -0.965152
 H        -0.366930         1.214651        -0.325791
 H        -0.260706        -0.343044        -0.955052
 H        -0.207622        -0.157910         0.954128
 H         2.454467         0.969068        -1.931970
 H         2.144924         2.164558        -0.615208
 H         4.589712         1.400015        -0.360182
 H         3.838072         0.492948         2.121922
 H         5.090944        -1.087180         0.126709
 H         2.232885        -0.935060        -2.023079
 H         0.979060        -1.960491        -0.889775
