19
Iteration:   843charge 0 multiplicity 1
 C         0.034090         0.428868        -0.090327
 C         1.525665         0.121502        -0.233042
 C         2.406926         1.389507        -0.111800
 C         3.740220         0.764194         0.340012
 C         3.310999        -0.339862         1.204676
 O         1.916158        -0.681769         1.045522
 C         4.124178        -0.727174        -0.031000
 O         3.320430        -1.391098        -0.970397
 C         2.093409        -0.835341        -1.392249
 H        -0.704330        -0.182776        -0.736308
 H        -0.024980         0.414416         0.993802
 H        -0.027955         1.571580        -0.309401
 H         2.445000         2.031227        -0.953991
 H         1.997890         2.012206         0.689764
 H         4.586876         1.461961         0.589166
 H         3.606205        -0.559112         2.224122
 H         5.104816        -1.134062        -0.059637
 H         2.370098        -0.187700        -2.224524
 H         1.449265        -1.556257        -1.797769
