19
Iteration:  3719
 C         0.063717         0.266833        -0.213494
 C         1.544442         0.066455        -0.219579
 C         2.305638         0.175579        -1.500248
 C         3.714606         0.320480        -0.877926
 C         3.503423         0.697246         0.544671
 O         2.160013         0.994417         0.704215
 C         4.030594        -0.702449         0.160984
 O         3.207093        -1.802777         0.301008
 C         1.948501        -1.330648         0.653578
 H        -0.074362         1.132686         0.466333
 H        -0.322627         0.591347        -1.248024
 H        -0.503057        -0.544703         0.096860
 H         2.172485        -0.707989        -2.180470
 H         1.934183         1.091128        -2.148523
 H         4.502886         0.625390        -1.586053
 H         4.140105         1.270902         1.133820
 H         5.088524        -0.790884         0.543646
 H         1.378123        -2.274729         0.449138
 H         1.899225        -1.005021         1.688599
