19
Iteration:  1359
 C         0.002434         0.442667        -0.164516
 C         1.531429        -0.010138        -0.198152
 C         2.577881         1.115512        -0.614600
 C         3.781848         0.765743         0.171257
 C         3.302281        -0.195183         1.251346
 O         1.916043        -0.104334         1.251651
 C         4.030433        -0.681415         0.044128
 O         3.397608        -1.265684        -1.113058
 C         1.926254        -1.346258        -0.886772
 H        -0.193844         0.797806        -1.169065
 H        -0.724372        -0.412819         0.240718
 H         0.075925         1.249266         0.674062
 H         2.673323         1.073230        -1.796293
 H         2.230379         2.124830        -0.476610
 H         4.491399         1.491692         0.487847
 H         3.756753        -0.342744         2.253209
 H         5.061242        -1.178716         0.249211
 H         1.480159        -1.449058        -1.889901
 H         1.716841        -2.169009        -0.169471
