19
Iteration:  2459charge 0 multiplicity 1
 C         0.064093         0.302922        -0.143161
 C         1.581050         0.029340        -0.157618
 C         2.439357         0.956525        -1.116371
 C         3.742822         0.706456        -0.387208
 C         3.475332         0.426284         1.016558
 O         2.089770         0.203694         1.155325
 C         4.084764        -0.645697         0.085366
 O         3.157875        -1.809464        -0.191417
 C         1.882200        -1.387001        -0.569614
 H        -0.009992         1.193458        -0.895620
 H        -0.605912        -0.554501        -0.487373
 H        -0.272413         0.735829         0.788753
 H         2.398408         0.555351        -2.225362
 H         2.080752         1.935102        -1.159262
 H         4.628517         1.300179        -0.596413
 H         3.942360         0.842503         1.894784
 H         5.107636        -0.954354         0.095331
 H         1.759038        -1.558104        -1.673102
 H         1.192269        -2.118628        -0.015079
