19
Iteration:  4447charge 0 multiplicity 1
 C        -0.034664         0.287317        -0.148629
 C         1.525885         0.004345        -0.137480
 C         2.233449        -0.023433        -1.453984
 C         3.729670         0.081251        -1.106180
 C         3.640324         0.847240         0.196863
 O         2.290533         0.968508         0.624270
 C         4.058473        -0.579316         0.183124
 O         3.196471        -1.535379         0.892623
 C         1.868230        -1.398212         0.493805
 H        -0.444723        -0.276647        -0.987750
 H        -0.602779         0.246566         0.819423
 H        -0.244467         1.266787        -0.498291
 H         1.905862        -0.838228        -2.168668
 H         1.983200         0.920457        -2.037666
 H         4.443059         0.162130        -1.899283
 H         4.253874         1.770505         0.459082
 H         5.086867        -0.837767         0.406407
 H         1.714304        -2.101546        -0.278763
 H         1.284228        -1.488737         1.480853
