19
Iteration:  3863charge 0 multiplicity 1
 C        -0.020417         0.161779        -0.169246
 C         1.530590         0.055322        -0.125505
 C         2.219178         0.143444        -1.403913
 C         3.707185         0.222926        -1.067347
 C         3.741312         0.780448         0.330027
 O         2.293841         1.024992         0.692652
 C         4.070506        -0.694430         0.213573
 O         3.175701        -1.638591         0.725987
 C         1.791529        -1.341240         0.375755
 H        -0.251576        -0.364183        -1.158236
 H        -0.493398        -0.299567         0.641534
 H        -0.393948         1.185269        -0.292942
 H         1.912803        -0.607885        -2.147408
 H         1.923907         1.079321        -1.896108
 H         4.422481         0.301520        -1.858406
 H         4.347354         1.511934         0.979536
 H         5.118240        -0.923515         0.304235
 H         1.660825        -2.167073        -0.506345
 H         1.189278        -1.450114         1.289758
