19
Iteration:  3834
 C         0.061070         0.317196        -0.109128
 C         1.555262        -0.007766        -0.152996
 C         2.302603         0.176972        -1.495579
 C         3.678139         0.169301        -1.076827
 C         3.623617         0.819608         0.315644
 O         2.219303         0.893666         0.762427
 C         3.991325        -0.628123         0.219945
 O         3.210266        -1.604812         0.743446
 C         1.870821        -1.467505         0.337771
 H        -0.502853        -0.586508        -0.299096
 H        -0.333188         0.884723         0.782517
 H        -0.103532         1.094529        -0.957821
 H         1.956533        -0.731064        -2.217858
 H         1.999401         1.144388        -1.975699
 H         4.520931         0.368272        -1.767968
 H         4.195789         1.678517         0.750658
 H         5.016858        -0.875722         0.100246
 H         1.651594        -2.225172        -0.306601
 H         1.157087        -1.550749         1.227100
