19
Iteration:   861
 C         0.079945         0.490426        -0.028051
 C         1.559330         0.083089        -0.151984
 C         2.395490         1.380142        -0.145978
 C         3.703762         0.810591         0.247467
 C         3.314129        -0.444793         1.214882
 O         1.922193        -0.699233         0.965358
 C         4.009136        -0.610620        -0.034863
 O         3.330839        -1.530447        -0.909942
 C         2.171133        -0.719321        -1.379144
 H        -0.435413         0.213538        -0.960829
 H        -0.385446        -0.089231         0.702611
 H        -0.075753         1.559566         0.038913
 H         2.342986         1.841038        -1.208764
 H         2.071057         2.115295         0.600611
 H         4.584654         1.357413         0.569793
 H         3.606947        -0.557192         2.334993
 H         5.076229        -0.743089        -0.029738
 H         2.387380        -0.027874        -2.235967
 H         1.399718        -1.546888        -1.513239
