19
Iteration:  1090
 C         0.066608         0.384432        -0.060854
 C         1.566750         0.107491        -0.183671
 C         2.449498         1.397071        -0.378166
 C         3.812392         0.811151         0.218892
 C         3.314019        -0.252446         1.239782
 O         1.918533        -0.481369         1.096487
 C         4.014173        -0.713612         0.029227
 O         3.320124        -1.484617        -0.943272
 C         2.043093        -0.979651        -1.261900
 H        -0.497858        -0.256323        -0.821661
 H        -0.244471         0.260230         1.058169
 H        -0.027514         1.437142        -0.408276
 H         2.524959         1.698771        -1.432695
 H         2.013297         2.085775         0.311533
 H         4.666806         1.486037         0.457941
 H         3.565365        -0.412991         2.259312
 H         5.041708        -1.102588         0.120816
 H         2.051676        -0.666415        -2.294730
 H         1.306136        -1.791579        -1.086176
