19
Iteration:   538charge 0 multiplicity 1
 C         0.030246         0.396720        -0.260884
 C         1.566377         0.103338        -0.142172
 C         2.587340         1.307709         0.002721
 C         3.787235         0.606331         0.617373
 C         3.265181        -0.665735         1.210024
 O         1.808082        -0.626454         1.181974
 C         4.020303        -0.649290        -0.103232
 O         3.451039        -0.912577        -1.382777
 C         1.992825        -0.827675        -1.291418
 H        -0.425798         0.437406         0.711582
 H        -0.316843         1.309903        -0.638086
 H        -0.510103        -0.374859        -0.936244
 H         2.788186         1.832397        -0.938534
 H         2.124934         2.094016         0.734248
 H         4.704581         1.058066         0.913764
 H         3.641173        -1.327361         1.935132
 H         5.080175        -1.042204        -0.043759
 H         1.614334        -0.506523        -2.199763
 H         1.577533        -1.764051        -0.867859
