19
Iteration:  4801charge 0 multiplicity 1
 C         0.083261         0.342467        -0.139090
 C         1.544838        -0.148365        -0.158379
 C         2.234970        -0.148552        -1.510189
 C         3.666629         0.204983        -1.182814
 C         3.685809         0.841744         0.182061
 O         2.283479         0.936664         0.526939
 C         4.032863        -0.598178         0.132098
 O         3.207157        -1.454503         0.924126
 C         1.751209        -1.310634         0.722445
 H        -0.343317         0.662838         0.858852
 H        -0.048487         1.148710        -0.876927
 H        -0.486598        -0.554929        -0.634009
 H         2.140538        -1.101833        -2.009878
 H         1.842717         0.589193        -2.263171
 H         4.413498         0.320312        -1.928087
 H         4.285754         1.638137         0.643071
 H         5.059692        -0.767056         0.399630
 H         1.450490        -2.366181         0.239059
 H         1.267108        -1.098250         1.689925
