19
Iteration:  1119
 C         0.047718         0.399838        -0.162644
 C         1.536809         0.098739        -0.137743
 C         2.585020         1.164219        -0.469855
 C         3.783072         0.752142         0.327698
 C         3.305056        -0.334478         1.262585
 O         1.878052        -0.349903         1.209445
 C         4.065701        -0.675186        -0.033626
 O         3.366726        -1.230766        -1.139869
 C         1.959153        -1.113160        -1.058918
 H        -0.213492         0.429209        -1.190317
 H        -0.758134        -0.166134         0.364061
 H        -0.098094         1.408971         0.222264
 H         2.799596         1.544260        -1.461300
 H         2.055004         2.132999        -0.036835
 H         4.524046         1.540622         0.516689
 H         3.633849        -0.526440         2.257400
 H         5.013854        -1.055066         0.099268
 H         1.631223        -1.175414        -2.157202
 H         1.524471        -2.002154        -0.601983
