19
Iteration:  1284charge 0 multiplicity 1
 C         0.062846         0.278444        -0.316636
 C         1.552377         0.085771        -0.112227
 C         2.488184         1.264667        -0.378841
 C         3.823426         0.870959         0.086973
 C         3.412763        -0.145566         1.195977
 O         1.987282        -0.253250         1.245911
 C         4.016321        -0.696567        -0.002684
 O         3.225848        -1.591203        -0.846546
 C         1.934714        -1.054805        -1.109971
 H        -0.471761        -0.610115        -0.388730
 H        -0.242766         0.711443         0.664238
 H         0.116803         0.947149        -1.152427
 H         2.555688         1.767926        -1.340668
 H         2.191477         2.079992         0.201858
 H         4.610798         1.615091         0.096807
 H         3.761020        -0.092497         2.268140
 H         5.084172        -1.128151         0.010860
 H         1.741406        -0.759110        -2.140414
 H         1.171306        -1.917097        -1.094227
