19
Iteration:  1389charge 0 multiplicity 1
 C         0.100250         0.338433        -0.328567
 C         1.546838         0.094756        -0.086933
 C         2.503775         1.248232        -0.530465
 C         3.790375         0.812257         0.014149
 C         3.384116        -0.134773         1.254218
 O         1.962022        -0.264309         1.299583
 C         4.028991        -0.660617         0.008616
 O         3.301787        -1.482071        -0.929107
 C         1.874040        -1.188444        -0.931041
 H         0.048547         1.154306        -1.054223
 H        -0.446450        -0.541006        -0.665109
 H        -0.445111         0.504314         0.622370
 H         2.491876         1.177119        -1.660573
 H         2.249273         2.350817        -0.235361
 H         4.639740         1.478495         0.221188
 H         3.876018        -0.090605         2.270025
 H         5.088181        -1.072492         0.010555
 H         1.637935        -0.864229        -1.977343
 H         1.315424        -1.929973        -0.393033
