19
Iteration:  1833
 C        -0.010140         0.434725        -0.077213
 C         1.502141         0.024010        -0.200724
 C         2.437778         1.229033        -0.663851
 C         3.795005         0.772438        -0.162969
 C         3.433292         0.055348         1.185848
 O         1.961834        -0.106413         1.101494
 C         4.073952        -0.706321         0.045569
 O         3.289244        -1.750652        -0.477081
 C         1.996520        -1.201052        -1.062232
 H        -0.057516         0.974765         0.959567
 H        -0.477431         1.036657        -0.874924
 H        -0.627223        -0.547694        -0.017805
 H         2.310819         1.341490        -1.826262
 H         2.148823         2.067642        -0.002611
 H         4.714094         1.423602        -0.292980
 H         3.902910         0.338471         2.179339
 H         5.093216        -0.945668         0.150251
 H         2.311256        -0.808449        -1.965269
 H         1.336619        -2.128896        -1.203213
