19
Iteration:  3652charge 0 multiplicity 1
 C         0.048353         0.391565        -0.126223
 C         1.512596        -0.076246        -0.208933
 C         2.312864         0.230428        -1.576929
 C         3.714705         0.333364        -0.986889
 C         3.542102         0.763597         0.444593
 O         2.190254         0.824070         0.809774
 C         4.086454        -0.642476         0.101298
 O         3.251954        -1.680419         0.693313
 C         1.831684        -1.477173         0.357027
 H        -0.119169         1.267189        -0.689704
 H        -0.669054        -0.392223        -0.620858
 H        -0.254699         0.549734         0.877052
 H         1.991554        -0.435480        -2.355985
 H         2.219667         1.315139        -2.051793
 H         4.553690         0.700556        -1.579114
 H         4.148975         1.559122         1.030032
 H         5.070141        -0.893911         0.384962
 H         1.578068        -2.171052        -0.423102
 H         1.244916        -1.701481         1.223895
