19
Iteration:  2448charge 0 multiplicity 1
 C         0.129144         0.373019        -0.128744
 C         1.559970         0.045031        -0.234837
 C         2.387618         1.005949        -1.098039
 C         3.785224         0.792201        -0.481245
 C         3.470545         0.435510         0.988956
 O         2.081171         0.126788         1.149943
 C         4.007353        -0.708206         0.150289
 O         3.228177        -1.833202        -0.135420
 C         1.868383        -1.432769        -0.570960
 H        -0.347030         0.883036        -1.063488
 H        -0.467741        -0.633142        -0.084687
 H        -0.101040         0.876515         0.789489
 H         2.327250         0.871525        -2.271237
 H         2.141700         1.985658        -0.822419
 H         4.712852         1.307803        -0.728178
 H         3.833785         0.908678         1.901768
 H         5.015188        -1.076836         0.317929
 H         1.822207        -1.481447        -1.723679
 H         1.035468        -2.120024        -0.170521
