19
Iteration:   813
 C         0.100673         0.284618        -0.223678
 C         1.563742         0.173717        -0.113698
 C         2.526793         1.399143        -0.161583
 C         3.789488         0.729107         0.425363
 C         3.293906        -0.500679         1.256901
 O         1.838573        -0.547318         1.170451
 C         4.039012        -0.699021        -0.057097
 O         3.351607        -1.238154        -1.181864
 C         1.993966        -0.844502        -1.281851
 H        -0.457092        -0.637982        -0.096616
 H        -0.278121         0.898210         0.666598
 H        -0.092017         0.681534        -1.207074
 H         2.732219         1.738525        -1.168658
 H         2.208258         2.262099         0.495304
 H         4.697613         1.338850         0.525649
 H         3.547436        -0.893742         2.181904
 H         5.064619        -1.099231        -0.082785
 H         1.949085        -0.173593        -2.185648
 H         1.308476        -1.715129        -1.223570
