19
Iteration:  3402charge 0 multiplicity 1
 C        -0.002138         0.329487        -0.193315
 C         1.519612        -0.038901        -0.173126
 C         2.389918         0.417565        -1.496349
 C         3.746351         0.427719        -0.900818
 C         3.606183         0.673995         0.609939
 O         2.189071         0.772086         0.921464
 C         4.038617        -0.621971         0.185436
 O         3.223642        -1.723866         0.419882
 C         1.787536        -1.480768         0.187316
 H        -0.175025         1.404046        -0.262508
 H        -0.599916        -0.304045        -0.978923
 H        -0.408647        -0.063905         0.787581
 H         2.309640        -0.423303        -2.190868
 H         2.011108         1.379323        -1.870697
 H         4.579100         0.702654        -1.555475
 H         4.181964         1.344105         1.134379
 H         5.123509        -0.936754         0.275243
 H         1.487835        -2.310314        -0.589316
 H         1.277977        -1.672764         1.049738
