19
Iteration:  4984charge 0 multiplicity 1
 C        -0.057414         0.262705        -0.080137
 C         1.547642        -0.085583        -0.178546
 C         2.372172        -0.089568        -1.510541
 C         3.847835         0.076614        -1.129108
 C         3.597111         0.808232         0.224414
 O         2.248754         1.057180         0.530709
 C         4.031060        -0.551192         0.264428
 O         3.200776        -1.591171         0.613944
 C         1.739186        -1.289779         0.777073
 H        -0.554790         0.649944        -1.066025
 H        -0.695694        -0.501968         0.218897
 H        -0.106895         1.049177         0.763565
 H         2.254358        -0.928069        -2.235779
 H         2.130159         0.901841        -2.063726
 H         4.482225         0.593054        -1.874609
 H         4.138846         1.658561         0.585287
 H         5.068236        -0.874396         0.572500
 H         1.154341        -2.232002         0.395095
 H         1.433485        -0.968772         1.856599
