19
Iteration:  3275charge 0 multiplicity 1
 C         0.017520         0.299663        -0.153254
 C         1.531499        -0.031455        -0.177438
 C         2.356551         0.459954        -1.430029
 C         3.779358         0.432022        -0.855194
 C         3.535805         0.699392         0.640622
 O         2.113727         0.756398         0.931083
 C         4.076023        -0.644112         0.189929
 O         3.248128        -1.773013         0.306038
 C         1.829315        -1.485066         0.128723
 H        -0.554089        -0.641226         0.189475
 H        -0.040876         1.238670         0.475850
 H        -0.294640         0.534606        -1.151634
 H         2.231524        -0.136878        -2.433311
 H         2.246229         1.502565        -1.725248
 H         4.623523         0.870587        -1.385234
 H         4.155822         1.200346         1.295581
 H         5.123909        -0.943006         0.484236
 H         1.483963        -1.957525        -0.727342
 H         1.142940        -1.797250         0.950321
