19
Iteration:  4036
 C         0.003881         0.402550        -0.040431
 C         1.545648        -0.012980        -0.099041
 C         2.268468        -0.078689        -1.488982
 C         3.741530         0.175158        -1.109874
 C         3.620817         0.871240         0.256459
 O         2.238740         0.934419         0.644294
 C         4.108921        -0.597322         0.229461
 O         3.158238        -1.547440         0.771852
 C         1.823421        -1.440785         0.383201
 H        -0.480268         0.685304         0.960592
 H        -0.195460         1.099149        -0.812716
 H        -0.498068        -0.507743        -0.369789
 H         2.235468        -1.043529        -1.918204
 H         2.070090         0.679698        -2.309125
 H         4.505461         0.604331        -1.795271
 H         4.221497         1.715689         0.695611
 H         5.083445        -1.001444         0.343089
 H         1.584888        -2.061655        -0.409591
 H         1.193216        -1.805106         1.279303
