19
Iteration:  1947charge 0 multiplicity 1
 C        -0.077188         0.440158        -0.218533
 C         1.523703         0.006199        -0.134493
 C         2.535076         1.014232        -0.835998
 C         3.822624         0.833383         0.005440
 C         3.405255         0.039649         1.215415
 O         1.999588         0.034347         1.198192
 C         4.143816        -0.686793         0.075474
 O         3.334633        -1.499221        -0.916555
 C         1.835040        -1.459641        -0.637110
 H        -0.674043        -0.208855        -0.838124
 H        -0.573718         0.510563         0.774699
 H         0.010844         1.463854        -0.650438
 H         2.634848         0.813827        -1.874198
 H         2.087834         2.139128        -0.782527
 H         4.517953         1.668500         0.022575
 H         3.763053        -0.029348         2.303364
 H         5.183111        -1.125717         0.175461
 H         1.196738        -1.523248        -1.530407
 H         1.668492        -2.165566         0.111573
