19
Iteration:  1248
 C         0.030619         0.363537        -0.063042
 C         1.509547         0.118465        -0.231107
 C         2.489017         1.348238        -0.416165
 C         3.747890         0.838661         0.113323
 C         3.380043        -0.187901         1.200058
 O         1.958127        -0.372746         1.085901
 C         4.072603        -0.732075        -0.004897
 O         3.251821        -1.643790        -0.702739
 C         2.055712        -0.961595        -1.221813
 H        -0.410349        -0.277673         0.685928
 H        -0.219413         1.415737        -0.036889
 H        -0.574549         0.009942        -0.932524
 H         2.374111         1.566574        -1.493991
 H         2.318800         2.121205         0.208593
 H         4.583053         1.567552        -0.009261
 H         3.662812        -0.035582         2.205841
 H         5.094045        -0.918247         0.011141
 H         2.420101        -0.526830        -2.096349
 H         1.382016        -1.774184        -1.323913
