19
Iteration:  2228charge 0 multiplicity 1
 C         0.027517         0.297228        -0.174062
 C         1.579834         0.036145        -0.179280
 C         2.400993         1.064520        -0.902730
 C         3.792006         0.725254        -0.345952
 C         3.445409         0.260409         1.040435
 O         2.091871         0.031633         1.215276
 C         4.087966        -0.705672         0.057911
 O         3.148952        -1.745485        -0.199743
 C         1.944084        -1.228779        -0.821479
 H        -0.351940         0.965370        -0.962766
 H        -0.567440        -0.632761        -0.307347
 H        -0.291291         0.842639         0.749383
 H         2.305060         0.905727        -2.118903
 H         2.158676         2.118890        -0.758182
 H         4.594030         1.461949        -0.404551
 H         3.981581         0.764332         1.787637
 H         5.068816        -1.038725         0.115193
 H         2.167241        -1.125729        -1.951125
 H         1.166621        -1.887477        -0.609305
