19
Iteration:   383charge 0 multiplicity 1
 C         0.093076         0.477562        -0.236111
 C         1.532319         0.019953        -0.149537
 C         2.570315         1.288703         0.073629
 C         3.767056         0.613119         0.702673
 C         3.245884        -0.670512         1.185491
 O         1.835680        -0.813339         1.038099
 C         4.040610        -0.688745        -0.067385
 O         3.438880        -0.718222        -1.404638
 C         1.958199        -0.826651        -1.283745
 H        -0.692421        -0.142885        -0.686314
 H        -0.093363         0.696295         0.835275
 H         0.168461         1.487386        -0.827282
 H         2.819086         1.804322        -0.910442
 H         2.048439         2.082447         0.773640
 H         4.560872         1.164639         1.200034
 H         3.558827        -1.245622         2.106133
 H         4.986754        -1.110026        -0.135954
 H         1.431524        -0.518936        -2.173062
 H         1.745934        -1.928641        -1.175835
