19
Iteration:  4749charge 0 multiplicity 1
 C        -0.027809         0.313543        -0.186551
 C         1.558088         0.008202        -0.109603
 C         2.271685        -0.217614        -1.431556
 C         3.727812         0.114719        -1.103988
 C         3.584040         0.844840         0.261833
 O         2.203367         1.183842         0.373898
 C         4.074841        -0.633570         0.256398
 O         3.245350        -1.685597         0.605609
 C         1.875309        -1.243001         0.866202
 H        -0.518514        -0.194389         0.543054
 H        -0.308754         1.348445         0.118009
 H        -0.440908        -0.089915        -1.128432
 H         2.045554        -1.344814        -1.613652
 H         1.878667         0.373698        -2.284146
 H         4.525808         0.349100        -1.814162
 H         4.054143         1.720127         0.686329
 H         5.134577        -0.897242         0.450790
 H         1.361107        -2.068219         0.646319
 H         1.747876        -1.024721         1.962828
