19
Iteration:  4803charge 0 multiplicity 1
 C         0.067952         0.341495        -0.125962
 C         1.545302        -0.145199        -0.176575
 C         2.249931        -0.146084        -1.518982
 C         3.647018         0.213487        -1.176364
 C         3.684539         0.838161         0.195468
 O         2.303230         0.935181         0.524456
 C         4.033230        -0.620542         0.137917
 O         3.205090        -1.439391         0.934441
 C         1.759726        -1.320684         0.713217
 H        -0.305935         0.627109         0.793238
 H        -0.054325         1.100768        -0.969089
 H        -0.544978        -0.496213        -0.572381
 H         2.112175        -1.142948        -2.058294
 H         1.797819         0.593340        -2.219714
 H         4.400808         0.338470        -1.989704
 H         4.215292         1.629111         0.650487
 H         5.114629        -0.739617         0.371813
 H         1.439056        -2.265572         0.268928
 H         1.267725        -1.117783         1.688002
