19
Iteration:  4568
 C        -0.063851         0.242612        -0.204201
 C         1.512364        -0.061354        -0.139429
 C         2.298303        -0.120082        -1.530031
 C         3.744992         0.128468        -1.071723
 C         3.626818         0.839752         0.251325
 O         2.254723         1.051786         0.502699
 C         4.087203        -0.608579         0.211528
 O         3.225441        -1.615803         0.689568
 C         1.796108        -1.197268         0.833196
 H         0.010339         1.389078         0.048188
 H        -0.485183         0.056094        -1.253588
 H        -0.681643        -0.351513         0.433701
 H         2.112499        -1.076881        -2.031333
 H         1.802183         0.674539        -2.216376
 H         4.486082         0.233251        -1.867029
 H         4.295115         1.598680         0.692965
 H         5.139725        -0.819955         0.384497
 H         1.274221        -2.085156         0.527844
 H         1.766198        -0.891843         1.878728
