19
Iteration:  2943charge 0 multiplicity 1
 C         0.021242         0.394096        -0.222145
 C         1.491978        -0.011020        -0.183766
 C         2.422972         0.641064        -1.263486
 C         3.790033         0.572354        -0.593615
 C         3.459256         0.538044         0.928278
 O         2.051465         0.642025         0.965851
 C         4.049631        -0.661426         0.100891
 O         3.293370        -1.823494        -0.216157
 C         1.899085        -1.550214         0.109489
 H         0.030612         1.474685        -0.074127
 H        -0.545143         0.116467        -1.110834
 H        -0.690575        -0.079276         0.572754
 H         2.407035         0.089614        -2.301805
 H         2.064971         1.572919        -1.548593
 H         4.657831         1.119195        -1.054873
 H         4.018446         0.950875         1.787020
 H         5.125705        -0.940344         0.219872
 H         1.376300        -2.495857        -0.242607
 H         1.846437        -1.614448         1.120205
