19
Iteration:   220charge 0 multiplicity 1
 C         0.082253         0.309761        -0.093551
 C         1.565975         0.184658        -0.128204
 C         2.490380         1.337214         0.250264
 C         3.751451         0.559596         0.738380
 C         3.199018        -0.881475         1.103636
 O         1.827797        -0.875479         0.838071
 C         4.023285        -0.640060        -0.113052
 O         3.440097        -0.886267        -1.321073
 C         2.117418        -0.401987        -1.390307
 H        -0.573165        -0.521059        -0.234860
 H        -0.261077         0.792756         0.861763
 H        -0.159731         1.088188        -0.986848
 H         2.811765         1.846910        -0.614328
 H         2.081905         2.135905         0.870649
 H         4.490429         1.067246         1.334279
 H         3.391813        -1.442013         1.973745
 H         5.113170        -0.945243        -0.177809
 H         2.003679         0.233952        -2.331722
 H         1.475152        -1.343859        -1.533901
