19
Iteration:  3266
 C         0.024976         0.243603        -0.145637
 C         1.509526         0.038488        -0.184685
 C         2.414362         0.450168        -1.445607
 C         3.811576         0.464659        -0.876375
 C         3.543514         0.662437         0.661290
 O         2.139558         0.709465         0.956960
 C         3.997678        -0.663192         0.174879
 O         3.205598        -1.759705         0.361750
 C         1.857934        -1.394896         0.068865
 H        -0.480476        -0.531685         0.567559
 H        -0.201953         1.155255         0.443409
 H        -0.389684         0.294004        -1.197140
 H         2.271104        -0.302383        -2.212233
 H         2.066908         1.459701        -1.852543
 H         4.624838         0.732767        -1.519144
 H         4.095107         1.303186         1.336551
 H         5.087480        -0.810463         0.249510
 H         1.601836        -1.938409        -0.922688
 H         1.309063        -1.801833         0.864243
