19
Iteration:  3421
 C         0.093724         0.311519        -0.171048
 C         1.579463         0.015852        -0.137243
 C         2.336250         0.254988        -1.419852
 C         3.784920         0.436643        -0.900129
 C         3.567200         0.837929         0.547882
 O         2.226784         0.653519         0.921867
 C         4.082571        -0.617967         0.103286
 O         3.095401        -1.671662         0.485079
 C         1.769167        -1.500575         0.132814
 H         0.047745         1.387793         0.143804
 H        -0.133456         0.287622        -1.239461
 H        -0.651573        -0.446100         0.298812
 H         2.144608        -0.496584        -2.119075
 H         1.929909         1.322113        -1.795697
 H         4.573937         1.028848        -1.413436
 H         4.117219         1.562013         1.113117
 H         5.119387        -0.892570         0.313877
 H         1.393719        -2.006191        -0.789000
 H         1.167130        -1.947019         1.000076
