19
Iteration:  4683charge 0 multiplicity 1
 C         0.007634         0.305055        -0.223100
 C         1.515832        -0.013473        -0.084041
 C         2.196469        -0.168353        -1.399824
 C         3.750975         0.056821        -1.148880
 C         3.589475         0.881276         0.165978
 O         2.197747         1.198939         0.487889
 C         4.077725        -0.620444         0.193799
 O         3.304557        -1.630011         0.881237
 C         1.881218        -1.363050         0.702862
 H        -0.623565         0.050598         0.536512
 H        -0.029151         1.412485        -0.178230
 H        -0.343940        -0.028544        -1.267345
 H         1.800210        -1.159621        -1.825561
 H         1.718370         0.543497        -2.114381
 H         4.325961         0.132694        -2.031870
 H         4.358416         1.702132         0.412631
 H         5.105515        -0.888756         0.305022
 H         1.561049        -1.985621        -0.023267
 H         1.287991        -1.426500         1.691123
