19
Iteration:  1009
 C         0.017761         0.324715        -0.160118
 C         1.539318         0.130061        -0.156636
 C         2.514385         1.347996        -0.233083
 C         3.796473         0.765374         0.277917
 C         3.337537        -0.358241         1.170159
 O         1.927383        -0.386075         1.158504
 C         4.078809        -0.705540        -0.012560
 O         3.358870        -1.423429        -1.039023
 C         1.932293        -0.950608        -1.234711
 H        -0.361606         0.307427         0.859033
 H        -0.248573         1.404240        -0.546313
 H        -0.393275        -0.492303        -0.824593
 H         2.639487         1.799003        -1.198210
 H         2.061278         2.210740         0.370766
 H         4.494897         1.500571         0.628500
 H         3.760286        -0.645334         2.194258
 H         5.080220        -1.134693         0.213067
 H         1.940840        -0.533016        -2.258821
 H         1.266348        -1.771146        -1.305884
