19
Iteration:  3502
 C         0.055976         0.144760        -0.173613
 C         1.534811         0.049940        -0.091114
 C         2.418772         0.210817        -1.472596
 C         3.833837         0.426659        -0.934795
 C         3.614544         0.758775         0.570012
 O         2.201839         0.902405         0.882951
 C         3.982936        -0.588979         0.209504
 O         3.132258        -1.773417         0.244135
 C         1.740359        -1.364181         0.373041
 H        -0.576470        -0.624409         0.305760
 H        -0.221001         1.229031         0.231554
 H        -0.183707         0.181888        -1.214289
 H         2.471982        -0.740447        -2.123648
 H         1.984178         1.019341        -2.013921
 H         4.653551         0.580001        -1.634872
 H         4.187414         1.563552         1.167764
 H         4.969276        -0.960717         0.298842
 H         1.083065        -2.077166        -0.269330
 H         1.533275        -1.507895         1.337979
