19
Iteration:  1502charge 0 multiplicity 1
 C         0.097971         0.384808        -0.235933
 C         1.594983         0.104886        -0.148447
 C         2.434286         1.274146        -0.577492
 C         3.769203         0.790507         0.058349
 C         3.323356        -0.112673         1.183854
 O         1.954612        -0.193290         1.223367
 C         4.033251        -0.684404         0.037296
 O         3.370510        -1.570541        -0.938797
 C         1.883193        -1.214922        -0.847366
 H        -0.343293         0.691490         0.662446
 H        -0.046323         1.174249        -1.045395
 H        -0.302342        -0.508119        -0.753354
 H         2.537550         1.552935        -1.704381
 H         2.189257         2.196116        -0.087792
 H         4.695909         1.435730         0.135846
 H         3.716197        -0.139368         2.206831
 H         4.981299        -1.082244         0.179973
 H         1.575395        -1.417131        -1.857816
 H         1.576519        -1.847184        -0.071763
