19
Iteration:  3800
 C         0.050497         0.485643        -0.071285
 C         1.516458        -0.035731        -0.185621
 C         2.333387         0.054994        -1.535595
 C         3.752011         0.294902        -1.020142
 C         3.556554         0.764757         0.369306
 O         2.164326         0.853676         0.724414
 C         4.071373        -0.614398         0.242170
 O         3.243424        -1.624389         0.601024
 C         1.825193        -1.505222         0.413905
 H        -0.684434        -0.162787         0.467303
 H         0.007755         1.479867         0.344004
 H        -0.344236         0.394178        -1.174881
 H         2.226473        -0.945019        -2.219548
 H         1.866498         0.937879        -2.023257
 H         4.372363         0.919463        -1.648285
 H         4.230333         1.634727         0.748449
 H         5.053928        -0.988183         0.290843
 H         1.582972        -2.321368        -0.107318
 H         1.323596        -1.579677         1.449986
