19
Iteration:  1997charge 0 multiplicity 1
 C         0.033058         0.300045        -0.159507
 C         1.534338         0.049200        -0.168054
 C         2.437817         1.188469        -0.683445
 C         3.799045         0.808852        -0.128395
 C         3.457099         0.155326         1.116788
 O         2.027149         0.067241         1.172643
 C         3.994692        -0.739563         0.016849
 O         3.249953        -1.763674        -0.536660
 C         1.968158        -1.288728        -0.900601
 H        -0.203275         0.542235        -1.189169
 H        -0.546824        -0.622682         0.071499
 H        -0.125250         1.154625         0.581457
 H         2.442898         1.186280        -1.835966
 H         2.090247         2.072888        -0.250965
 H         4.694933         1.353996        -0.323875
 H         3.815928         0.392931         2.059993
 H         5.067587        -1.051893         0.016361
 H         1.822081        -1.089861        -1.997740
 H         1.235886        -2.132705        -0.557188
