19
Iteration:   652
 C         0.018612         0.297893        -0.231676
 C         1.617311         0.081211        -0.115472
 C         2.454305         1.360871         0.063432
 C         3.714182         0.742154         0.454375
 C         3.346043        -0.457769         1.228582
 O         1.982764        -0.619470         1.017399
 C         4.067489        -0.742367        -0.065676
 O         3.173598        -1.375218        -1.099465
 C         2.111636        -0.531280        -1.407063
 H        -0.276676         0.097265        -1.242929
 H        -0.413531        -0.632965         0.338132
 H        -0.214135         1.210589         0.223999
 H         2.517058         1.967826        -0.892416
 H         2.069588         1.977699         0.906476
 H         4.659402         1.315249         0.507672
 H         3.583972        -0.693352         2.244383
 H         5.073222        -1.153870        -0.152978
 H         2.494236         0.285750        -1.955930
 H         1.461996        -1.136158        -1.928658
