19
Iteration:   756
 C         0.125590         0.522603        -0.181381
 C         1.559502         0.048433        -0.124864
 C         2.558440         1.218610        -0.208983
 C         3.743443         0.746153         0.517198
 C         3.219193        -0.589481         1.179135
 O         1.802660        -0.563744         1.187734
 C         4.009773        -0.713837        -0.059736
 O         3.426233        -0.871698        -1.373749
 C         2.069511        -1.096482        -1.143132
 H        -0.177482         0.875563         0.853633
 H         0.009817         1.258449        -0.909869
 H        -0.709418        -0.192378        -0.492529
 H         2.737350         1.588060        -1.176305
 H         2.157305         2.033675         0.393326
 H         4.432573         1.443632         1.044975
 H         3.646561        -0.830227         2.202141
 H         4.874613        -1.298953         0.009216
 H         1.549314        -1.095215        -2.098178
 H         1.809006        -2.096702        -0.745121
