19
Iteration:   966charge 0 multiplicity 1
 C         0.125516         0.544573        -0.146932
 C         1.539938        -0.013166        -0.197627
 C         2.527952         1.160657        -0.418596
 C         3.809211         0.771060         0.440377
 C         3.233767        -0.392764         1.225139
 O         1.879545        -0.530580         1.196219
 C         4.022906        -0.690788        -0.010470
 O         3.415813        -0.976883        -1.238616
 C         1.924539        -1.165966        -1.066825
 H         0.274509         1.511057         0.402123
 H        -0.106701         0.933498        -1.298409
 H        -0.616771        -0.192448         0.330945
 H         2.571326         1.117992        -1.504699
 H         2.144489         2.151269        -0.009394
 H         4.458056         1.438885         0.971040
 H         3.612160        -0.693494         2.262183
 H         5.045708        -1.153206         0.019026
 H         1.356784        -1.144814        -2.013250
 H         1.746000        -2.064393        -0.532776
