19
Iteration:  3649charge 0 multiplicity 1
 C         0.042502         0.378542        -0.152106
 C         1.477274        -0.086361        -0.208032
 C         2.325839         0.292042        -1.573801
 C         3.713709         0.317538        -0.992269
 C         3.556788         0.750319         0.445778
 O         2.187853         0.832860         0.796761
 C         4.071957        -0.651346         0.110546
 O         3.255071        -1.666038         0.697902
 C         1.837312        -1.483680         0.373989
 H        -0.087224         1.264591        -0.760586
 H        -0.652506        -0.376167        -0.440096
 H        -0.209124         0.583263         0.938823
 H         2.060199        -0.377562        -2.360246
 H         2.144857         1.279108        -2.026253
 H         4.553558         0.640241        -1.583226
 H         4.166546         1.477878         1.022975
 H         5.106560        -0.898703         0.341161
 H         1.580902        -2.317291        -0.466705
 H         1.367514        -1.774006         1.261350
