19
Iteration:  2536charge 0 multiplicity 1
 C        -0.068717         0.324276        -0.271293
 C         1.467858         0.026157        -0.121195
 C         2.529714         0.804478        -1.065677
 C         3.866028         0.773309        -0.403896
 C         3.448367         0.255337         1.030347
 O         2.020244         0.455574         1.119840
 C         4.044958        -0.701771         0.059652
 O         3.268724        -1.712880        -0.537181
 C         1.896201        -1.483112        -0.157151
 H        -0.296989         0.730368         0.776833
 H         0.066027         1.223316        -0.930342
 H        -0.723003        -0.464030        -0.736425
 H         2.687799         0.174644        -2.037941
 H         2.123609         1.756884        -1.164037
 H         4.630593         1.548554        -0.486551
 H         3.939012         0.647872         1.926177
 H         5.017995        -0.990563         0.303541
 H         1.376513        -2.090311        -0.831713
 H         1.758543        -2.042051         0.873553
