19
Iteration:  1472
 C         0.033457         0.325059        -0.071251
 C         1.540728         0.033834        -0.215898
 C         2.530716         1.187169        -0.624899
 C         3.791972         0.804677         0.096741
 C         3.369678        -0.045390         1.218270
 O         1.975535        -0.203126         1.176767
 C         4.090508        -0.654325         0.029645
 O         3.240830        -1.582055        -0.679144
 C         1.931456        -1.096423        -1.194234
 H        -0.322024         1.120293         0.745505
 H        -0.322827         0.701221        -1.100033
 H        -0.517855        -0.634504         0.173557
 H         2.711861         1.428416        -1.782077
 H         2.207416         2.151354        -0.152382
 H         4.706534         1.472576         0.178230
 H         3.778524        -0.021967         2.267216
 H         5.034149        -1.146485         0.037761
 H         1.982110        -0.774571        -2.242873
 H         1.234122        -2.046971        -1.078979
