19
Iteration:  2386
 C         0.078174         0.224348        -0.230997
 C         1.565017         0.072516        -0.104623
 C         2.463755         0.960463        -1.085037
 C         3.866002         0.727117        -0.374065
 C         3.476775         0.344080         1.087181
 O         2.105153         0.242439         1.237643
 C         3.960748        -0.682190         0.107102
 O         3.185461        -1.688648        -0.358273
 C         1.806422        -1.391937        -0.586367
 H        -0.331573        -0.776903        -0.383635
 H        -0.384678         0.533458         0.664209
 H        -0.183573         0.826566        -1.113664
 H         2.344234         0.719948        -2.101818
 H         2.234580         2.116099        -1.053639
 H         4.699167         1.320377        -0.751573
 H         4.023694         0.506404         1.985623
 H         4.873294        -1.125640         0.336198
 H         1.547519        -1.593080        -1.578923
 H         1.344219        -2.081261         0.050025
