19
Iteration:  4579
 C        -0.033805         0.242197        -0.184666
 C         1.535606         0.012853        -0.032642
 C         2.253913        -0.082017        -1.566211
 C         3.766627         0.003004        -1.105141
 C         3.625629         0.866941         0.226479
 O         2.205874         1.126215         0.477604
 C         4.094268        -0.618730         0.239357
 O         3.239662        -1.628454         0.735970
 C         1.855488        -1.288566         0.773764
 H        -0.420678         1.297442         0.161018
 H        -0.294611         0.188208        -1.279659
 H        -0.686432        -0.366447         0.412526
 H         2.019320        -1.008153        -2.087557
 H         2.016792         0.879611        -2.156681
 H         4.539371         0.203081        -1.868201
 H         4.168839         1.789209         0.415264
 H         5.109087        -0.811228         0.587460
 H         1.279804        -2.095067         0.335982
 H         1.396285        -1.283960         1.735950
