19
Iteration:   997
 C         0.042971         0.425147        -0.147811
 C         1.535949         0.067113        -0.178103
 C         2.473783         1.281098        -0.332260
 C         3.824580         0.801469         0.351688
 C         3.292813        -0.376174         1.253080
 O         1.915198        -0.453171         1.151662
 C         4.024433        -0.681243        -0.033559
 O         3.411872        -1.333209        -1.113093
 C         1.960273        -0.972503        -1.171311
 H        -0.227404         0.568885         0.903211
 H        -0.168910         1.343017        -0.765687
 H        -0.712284        -0.335908        -0.482881
 H         2.646247         1.338827        -1.389369
 H         2.173265         2.224112         0.191486
 H         4.674853         1.380685         0.686880
 H         3.656783        -0.692762         2.278477
 H         5.116957        -1.019729        -0.031372
 H         1.741392        -0.562691        -2.173874
 H         1.427198        -1.860564        -0.882175
