19
Iteration:  4560charge 0 multiplicity 1
 C         0.003909         0.261818        -0.227836
 C         1.479372        -0.098901        -0.213013
 C         2.299963        -0.174651        -1.447738
 C         3.704412         0.190068        -1.097569
 C         3.629829         0.815375         0.260335
 O         2.267709         1.033151         0.535995
 C         4.039071        -0.587151         0.199965
 O         3.210809        -1.620654         0.664863
 C         1.833523        -1.182699         0.822363
 H        -0.124954         1.400353        -0.063189
 H        -0.451437         0.084376        -1.156421
 H        -0.475330        -0.290358         0.603967
 H         2.268600        -1.144544        -1.948019
 H         1.916869         0.618371        -2.202957
 H         4.563576         0.422789        -1.789174
 H         4.249243         1.528325         0.706430
 H         5.104777        -0.876786         0.302442
 H         1.197263        -2.080155         0.827261
 H         1.638346        -0.566965         1.826245
