19
Iteration:   210
 C         0.045246         0.359626        -0.110524
 C         1.551455         0.150985        -0.138524
 C         2.501952         1.361798         0.232637
 C         3.753029         0.519181         0.778365
 C         3.204057        -0.906382         1.108815
 O         1.774865        -0.842682         0.899139
 C         4.070156        -0.689506        -0.090212
 O         3.512841        -0.786092        -1.392408
 C         2.071407        -0.465864        -1.416462
 H        -0.332296        -0.575022         0.201176
 H        -0.091090         1.153080         0.633097
 H        -0.416358         0.659530        -1.144588
 H         2.686461         1.883052        -0.635187
 H         2.040372         2.005683         0.975460
 H         4.582508         0.991735         1.272607
 H         3.454589        -1.471975         1.974957
 H         5.129770        -1.007593        -0.133648
 H         1.860284         0.229462        -2.254637
 H         1.532265        -1.423024        -1.528718
