19
Iteration:  2335charge 0 multiplicity 1
 C         0.126143         0.465965        -0.249063
 C         1.537559        -0.024795        -0.108075
 C         2.460047         0.902415        -1.034435
 C         3.797332         0.748240        -0.304469
 C         3.295191         0.172130         1.143516
 O         1.954205         0.297611         1.246342
 C         3.986264        -0.652134         0.081238
 O         3.319637        -1.648535        -0.738237
 C         1.974431        -1.523959        -0.305129
 H        -0.346727         0.388878         0.684217
 H         0.116377         1.543119        -0.457042
 H        -0.443002        -0.145506        -1.086567
 H         2.662407         0.453209        -2.040082
 H         2.237620         1.903414        -1.230263
 H         4.630132         1.402300        -0.560852
 H         3.844831         0.437903         1.997063
 H         4.998391        -0.893445         0.157213
 H         1.368874        -2.027888        -1.117837
 H         1.839976        -2.144051         0.709940
