19
Iteration:  1453
 C         0.051201         0.326584        -0.084503
 C         1.540636         0.077985        -0.176695
 C         2.416073         1.245280        -0.601281
 C         3.802220         0.784154        -0.014369
 C         3.407004        -0.029384         1.232848
 O         1.976643        -0.294173         1.163401
 C         4.019767        -0.724704         0.106189
 O         3.214732        -1.636683        -0.684568
 C         2.034232        -0.996006        -1.181432
 H         0.006632         1.388861         0.211552
 H        -0.481311         0.149947        -0.964174
 H        -0.270084        -0.356701         0.673075
 H         2.478221         1.294432        -1.618587
 H         2.183465         2.306629        -0.358411
 H         4.555629         1.564791        -0.017890
 H         3.706659         0.134080         2.292358
 H         5.093665        -1.060279         0.100525
 H         2.434772        -0.522383        -2.096727
 H         1.388152        -1.878540        -1.382573
