19
Iteration:   253charge 0 multiplicity 1
 C         0.023605         0.426438        -0.193203
 C         1.586689         0.118605        -0.186524
 C         2.389402         1.271502         0.342350
 C         3.757187         0.665942         0.645510
 C         3.278233        -0.741940         1.227955
 O         1.908612        -0.918207         0.908420
 C         4.066206        -0.681243        -0.122614
 O         3.348578        -1.054265        -1.293281
 C         2.129462        -0.376352        -1.511595
 H        -0.490328         0.503545        -1.118716
 H        -0.491612        -0.240874         0.509378
 H         0.088389         1.425328         0.440018
 H         2.536810         2.015587        -0.379172
 H         1.925995         1.636101         1.268366
 H         4.572424         1.133159         1.137335
 H         3.533178        -1.141425         2.186394
 H         5.108457        -0.961445        -0.182268
 H         2.341884         0.440606        -2.290077
 H         1.406696        -1.117764        -1.998536
