19
Iteration:  4768charge 0 multiplicity 1
 C         0.007560         0.335913        -0.193596
 C         1.488420        -0.014048        -0.093611
 C         2.179127        -0.261313        -1.423988
 C         3.668542        -0.009019        -1.029570
 C         3.579519         0.880503         0.187311
 O         2.238841         1.171515         0.514350
 C         4.080351        -0.536647         0.267249
 O         3.315872        -1.680806         0.655974
 C         1.904585        -1.213291         0.695763
 H        -0.735241        -0.015286         0.613192
 H        -0.014512         1.389968        -0.299607
 H        -0.332931        -0.246016        -1.149440
 H         2.043024        -1.231641        -1.873137
 H         2.086329         0.568311        -2.181823
 H         4.303122         0.135458        -1.841889
 H         4.427824         1.616292         0.276241
 H         5.040939        -0.667207         0.673331
 H         1.336191        -2.161779         0.330372
 H         1.499558        -1.036568         1.696901
