19
Iteration:   910charge 0 multiplicity 1
 C         0.085556         0.277628        -0.249169
 C         1.579424         0.139825        -0.134563
 C         2.547803         1.345279        -0.122626
 C         3.814122         0.699104         0.358295
 C         3.295990        -0.382166         1.229537
 O         1.893630        -0.402713         1.169812
 C         3.987926        -0.758112        -0.063104
 O         3.354338        -1.229891        -1.180625
 C         1.960493        -0.930679        -1.169444
 H        -0.295546         1.133281        -0.917120
 H        -0.237574        -0.764375        -0.762546
 H        -0.515186         0.301851         0.753801
 H         2.623936         1.757147        -1.101789
 H         2.298630         2.255576         0.466281
 H         4.623910         1.421779         0.440211
 H         3.622252        -0.825100         2.123462
 H         4.983870        -1.288797         0.096809
 H         1.703437        -0.384246        -2.107910
 H         1.387597        -1.828769        -1.150090
