19
Iteration:   683charge 0 multiplicity 1
 C         0.080889         0.239307        -0.166629
 C         1.592389         0.171769        -0.142521
 C         2.542063         1.501173         0.049879
 C         3.690946         0.675297         0.345973
 C         3.245432        -0.495132         1.212791
 O         1.861055        -0.596623         1.090369
 C         4.039010        -0.734003        -0.079365
 O         3.296753        -1.366967        -1.102537
 C         2.153065        -0.634756        -1.420588
 H        -0.523573         1.021098        -0.659966
 H        -0.313991        -0.842714        -0.498946
 H        -0.286528         0.285847         0.844508
 H         2.575974         2.145481        -0.877890
 H         2.229547         2.200589         0.937685
 H         4.654594         1.202672         0.517157
 H         3.626477        -0.708102         2.228394
 H         5.056666        -1.016402         0.026971
 H         2.321967         0.164305        -2.213863
 H         1.421649        -1.385941        -1.852940
