19
Iteration:  3651
 C         0.046657         0.389365        -0.135081
 C         1.499911        -0.081263        -0.209260
 C         2.317407         0.249372        -1.577415
 C         3.714412         0.328829        -0.988187
 C         3.545737         0.758105         0.444062
 O         2.189529         0.827418         0.805955
 C         4.083148        -0.645722         0.102857
 O         3.253461        -1.675932         0.695618
 C         1.832264        -1.478936         0.365951
 H        -0.107414         1.251474        -0.705553
 H        -0.668538        -0.390754        -0.562664
 H        -0.239654         0.560507         0.896817
 H         2.012845        -0.401057        -2.346914
 H         2.200457         1.314680        -2.053797
 H         4.551704         0.678126        -1.576871
 H         4.162768         1.542201         1.039003
 H         5.070078        -0.894957         0.371279
 H         1.578299        -2.224685        -0.444424
 H         1.301021        -1.722873         1.214663
