19
Iteration:   286
 C         0.046681         0.393409        -0.246083
 C         1.583419         0.137535        -0.075949
 C         2.454384         1.399424         0.327540
 C         3.748667         0.674908         0.615079
 C         3.250994        -0.749674         1.125306
 O         1.824668        -0.885827         0.987550
 C         4.082142        -0.668848        -0.129630
 O         3.418601        -1.127084        -1.375896
 C         2.118595        -0.441510        -1.400945
 H        -0.193561         1.405279        -0.375624
 H        -0.445597        -0.314864        -0.889017
 H        -0.286926         0.170000         0.873080
 H         2.390797         2.011802        -0.520667
 H         1.983657         1.993519         1.135640
 H         4.508193         1.142036         1.193716
 H         3.514600        -1.178937         2.096894
 H         5.063375        -1.005824        -0.214463
 H         2.301494         0.458963        -2.086183
 H         1.272230        -1.089516        -1.745486
