19
Iteration:  4651
 C         0.088748         0.328605        -0.094200
 C         1.504134        -0.103925        -0.228266
 C         2.183291        -0.130236        -1.582312
 C         3.720426         0.023458        -1.137039
 C         3.632338         0.874376         0.142019
 O         2.253572         0.899153         0.604477
 C         4.100225        -0.527245         0.229818
 O         3.195232        -1.393674         0.965768
 C         1.838623        -1.320474         0.593317
 H        -0.254517         0.506217         0.856275
 H         0.084569         1.304494        -0.666272
 H        -0.671958        -0.382157        -0.567593
 H         1.884236        -1.083954        -2.120900
 H         1.864446         0.755254        -2.111320
 H         4.437269         0.119193        -1.908412
 H         4.206349         1.854879         0.278296
 H         5.116381        -0.870459         0.261909
 H         1.550686        -2.239044         0.080423
 H         1.215207        -1.400036         1.587499
