19
Iteration:  4133charge 0 multiplicity 1
 C         0.085697         0.241772        -0.101842
 C         1.542903         0.035351        -0.111658
 C         2.366391        -0.125751        -1.503676
 C         3.725814         0.230432        -1.068022
 C         3.584471         0.826073         0.321057
 O         2.219487         1.089065         0.568730
 C         4.023407        -0.611611         0.292967
 O         3.117456        -1.716707         0.397910
 C         1.829873        -1.267083         0.730097
 H        -0.417262        -0.484453         0.635957
 H        -0.306948         1.205530         0.189536
 H        -0.204347        -0.013603        -1.050676
 H         2.311127        -1.129084        -1.863372
 H         2.029207         0.680144        -2.267917
 H         4.522189         0.621861        -1.757317
 H         4.259867         1.482061         0.860438
 H         5.058363        -0.796747         0.603572
 H         1.234497        -2.219981         0.531620
 H         1.639947        -0.868242         1.815611
