19
Iteration:  1889charge 0 multiplicity 1
 C        -0.019421         0.308472        -0.260424
 C         1.522644         0.048328        -0.180313
 C         2.547357         1.123589        -0.712368
 C         3.843304         0.818806        -0.013445
 C         3.453072         0.008040         1.179782
 O         2.035420         0.022549         1.285994
 C         4.061201        -0.699657        -0.024900
 O         3.236263        -1.531670        -0.727343
 C         1.858940        -1.301363        -0.790322
 H        -0.704086        -0.410844         0.232243
 H        -0.406807         1.360608        -0.076723
 H        -0.371445         0.012600        -1.339856
 H         2.642611         0.975529        -1.845714
 H         2.173562         2.195771        -0.571249
 H         4.659551         1.547096        -0.022108
 H         3.995255         0.006973         2.069084
 H         5.010611        -1.213583         0.047217
 H         1.511626        -1.512442        -1.741336
 H         1.358279        -2.134573        -0.193368
