19
Iteration:  4023
 C         0.079251         0.261062        -0.084045
 C         1.513978        -0.021259        -0.127533
 C         2.304248        -0.009650        -1.488563
 C         3.719075         0.158511        -1.037507
 C         3.626381         0.839836         0.262140
 O         2.280846         1.062271         0.670147
 C         4.031863        -0.597502         0.201558
 O         3.184208        -1.569085         0.746650
 C         1.762529        -1.462522         0.367836
 H        -0.024091         0.902803         0.823218
 H        -0.337230         0.920185        -0.893501
 H        -0.510108        -0.562590        -0.045960
 H         2.074521        -0.942773        -2.050797
 H         1.851421         0.889889        -2.052728
 H         4.415684         0.222508        -1.828679
 H         4.353250         1.674595         0.593302
 H         5.022441        -0.730389         0.537036
 H         1.510565        -2.242031        -0.372596
 H         1.181251        -1.657654         1.384065
