19
Iteration:  4921
 C         0.012327         0.352888        -0.285483
 C         1.516663        -0.022247        -0.073862
 C         2.271697        -0.177996        -1.374837
 C         3.710114         0.111482        -1.072232
 C         3.615347         0.938920         0.204942
 O         2.259289         1.027628         0.543867
 C         4.066954        -0.551367         0.236993
 O         3.230822        -1.673939         0.590974
 C         1.810634        -1.295864         0.820550
 H        -0.028767         1.447706        -0.277940
 H        -0.303794        -0.139110        -1.221464
 H        -0.794973         0.084835         0.523125
 H         2.116033        -1.174980        -1.717205
 H         1.698855         0.418402        -2.085986
 H         4.424953         0.311430        -1.906393
 H         4.298509         1.701686         0.421511
 H         5.153120        -0.877732         0.218814
 H         1.304487        -2.091575         0.405299
 H         1.671762        -1.224198         1.893346
