19
Iteration:  4330charge 0 multiplicity 1
 C         0.020291         0.326175        -0.268084
 C         1.480815        -0.023880        -0.032804
 C         2.293629        -0.018409        -1.372879
 C         3.727858         0.212112        -1.002544
 C         3.589632         0.813291         0.299879
 O         2.163708         1.088406         0.538457
 C         4.044314        -0.634760         0.229330
 O         3.260742        -1.733398         0.440581
 C         1.915153        -1.355480         0.805930
 H        -0.844756        -0.141264         0.476872
 H        -0.030198         1.434822        -0.302512
 H        -0.231159        -0.134857        -1.316306
 H         2.184398        -0.888378        -1.997380
 H         1.903803         0.839105        -2.009074
 H         4.495050         0.393603        -1.706943
 H         4.278310         1.577817         0.754329
 H         5.105252        -0.857595         0.327504
 H         1.307487        -2.173580         0.269452
 H         1.604507        -1.176028         1.814236
