19
Iteration:  2012
 C        -0.038119         0.311316        -0.124770
 C         1.537751         0.106962        -0.225312
 C         2.461092         1.210700        -0.751961
 C         3.803195         0.715007        -0.270994
 C         3.425362         0.082871         1.143603
 O         1.997969         0.081191         1.223906
 C         4.117006        -0.704270         0.042528
 O         3.243020        -1.765544        -0.429994
 C         1.965007        -1.285765        -0.972553
 H        -0.640786         0.929036        -0.801295
 H        -0.446265        -0.732420        -0.149216
 H        -0.394068         0.660416         0.889301
 H         2.381935         1.511172        -1.740629
 H         2.237410         2.219805        -0.230653
 H         4.584650         1.499382        -0.279242
 H         3.999192         0.251697         2.135895
 H         5.161752        -1.010313         0.142720
 H         2.205072        -1.125817        -1.978147
 H         1.217439        -2.150626        -0.905308
