19
Iteration:  2878
 C         0.004582         0.268548        -0.213407
 C         1.540648         0.013453        -0.133066
 C         2.397958         0.731172        -1.254588
 C         3.828283         0.582128        -0.662884
 C         3.520349         0.538797         0.823712
 O         2.112142         0.584114         1.111508
 C         4.053268        -0.662647         0.147190
 O         3.255622        -1.818122        -0.037714
 C         1.820675        -1.499703        -0.186623
 H        -0.351547         0.189240        -1.239810
 H        -0.560817        -0.441193         0.395549
 H        -0.239594         1.343943         0.208906
 H         2.274657         0.082764        -2.255443
 H         2.118902         1.766210        -1.452171
 H         4.610640         1.339049        -0.921992
 H         3.987051         1.113406         1.661768
 H         5.037868        -1.024205         0.419008
 H         1.382052        -1.997834        -1.098817
 H         1.292287        -1.925672         0.739386
