19
Iteration:  2444charge 0 multiplicity 1
 C         0.105030         0.387687        -0.150304
 C         1.561431         0.029745        -0.251111
 C         2.391830         1.029854        -1.072710
 C         3.805572         0.794416        -0.514903
 C         3.450986         0.404231         0.990702
 O         2.080385         0.125141         1.140536
 C         3.982966        -0.721612         0.170421
 O         3.241759        -1.821931        -0.113271
 C         1.869622        -1.449079        -0.604903
 H        -0.375222         0.806514        -0.991883
 H        -0.377107        -0.588336         0.129375
 H         0.003756         0.969775         0.794054
 H         2.282784         0.918974        -2.125953
 H         2.121115         2.063350        -0.742119
 H         4.668567         1.402317        -0.856153
 H         3.938706         0.933579         1.864663
 H         5.074733        -1.046168         0.361561
 H         1.821895        -1.555047        -1.621040
 H         1.096512        -2.113052        -0.175905
