19
Iteration:  1479
 C         0.040698         0.320249        -0.100651
 C         1.527670         0.042071        -0.236170
 C         2.527309         1.254152        -0.602919
 C         3.834734         0.823166         0.077144
 C         3.392651        -0.077535         1.217663
 O         1.939194        -0.212938         1.179569
 C         4.048882        -0.662625         0.030833
 O         3.232278        -1.568083        -0.741377
 C         1.930048        -1.162025        -1.066858
 H        -0.065210         0.942166         0.713719
 H        -0.300081         0.846300        -1.016745
 H        -0.465573        -0.650812        -0.091887
 H         2.846428         1.451184        -1.674783
 H         2.245312         2.224255        -0.228726
 H         4.607920         1.588469         0.122771
 H         3.715480        -0.023216         2.226612
 H         5.043848        -1.077752        -0.004762
 H         2.070588        -0.898079        -2.126394
 H         1.345322        -2.014885        -0.891747
