19
Iteration:  4541
 C         0.141052         0.327657        -0.233968
 C         1.590576        -0.013779        -0.107040
 C         2.316234        -0.274167        -1.511417
 C         3.672203         0.194183        -1.083014
 C         3.536956         0.877214         0.281171
 O         2.181328         1.061634         0.601364
 C         4.049451        -0.598404         0.176892
 O         3.166845        -1.662200         0.560062
 C         1.822152        -1.210987         0.851359
 H         0.137499         1.319168        -0.600846
 H        -0.297769        -0.339681        -0.964713
 H        -0.350078         0.103883         0.763350
 H         2.259408        -1.363174        -1.713301
 H         1.821120         0.174955        -2.328686
 H         4.433708         0.545807        -1.832022
 H         4.190612         1.702247         0.555940
 H         5.091215        -0.841581         0.481859
 H         1.153931        -2.089356         0.592220
 H         1.865395        -0.837306         1.855493
