19
Iteration:  3332
 C         0.058333         0.303164        -0.219527
 C         1.532422         0.046090        -0.147600
 C         2.418846         0.219073        -1.385853
 C         3.771524         0.521431        -0.811755
 C         3.529020         0.606320         0.681814
 O         2.133127         0.780682         0.948266
 C         4.070285        -0.610853         0.188384
 O         3.195969        -1.732870         0.044499
 C         1.807015        -1.373953         0.334233
 H        -0.336545        -0.225746        -1.210705
 H        -0.535166        -0.167394         0.550348
 H        -0.359428         1.385746        -0.380839
 H         2.470238        -0.756445        -1.839448
 H         2.117333         1.055548        -2.140664
 H         4.556906         1.106430        -1.258105
 H         4.163013         1.427305         1.190684
 H         4.984535        -1.154540         0.263613
 H         1.278832        -2.136160        -0.237952
 H         1.567227        -1.458634         1.383300
