19
Iteration:  2518charge 0 multiplicity 1
 C         0.110994         0.362372        -0.245708
 C         1.576566         0.026754        -0.203973
 C         2.465015         0.844959        -1.142136
 C         3.826575         0.692189        -0.358246
 C         3.368554         0.340402         1.069862
 O         1.983214         0.439779         1.153772
 C         4.026579        -0.707979         0.088140
 O         3.237422        -1.696423        -0.570248
 C         1.912242        -1.550507        -0.151541
 H        -0.138698         0.969623         0.581651
 H        -0.246732         0.814602        -1.134846
 H        -0.374094        -0.672720        -0.152531
 H         2.438461         0.590022        -2.143276
 H         2.032227         1.943019        -0.943339
 H         4.697137         1.262935        -0.718748
 H         4.063358         0.453990         1.940173
 H         5.087975        -0.936427         0.406071
 H         1.203407        -2.268906        -0.823561
 H         1.684903        -1.785402         0.839226
