19
Iteration:  3063
 C        -0.034998         0.315523        -0.185393
 C         1.524462         0.033409        -0.115097
 C         2.354623         0.533548        -1.296638
 C         3.812167         0.592010        -0.772592
 C         3.556280         0.553886         0.746684
 O         2.120127         0.601906         1.052391
 C         4.103989        -0.672232         0.109613
 O         3.239543        -1.734125         0.221345
 C         1.831500        -1.469689        -0.124977
 H        -0.520823        -0.616896        -0.319968
 H        -0.479679         0.823984         0.685438
 H        -0.268985         1.001178        -1.090108
 H         2.282388        -0.124372        -2.266910
 H         2.163984         1.438954        -1.745656
 H         4.619001         1.163852        -1.236376
 H         4.091519         1.126241         1.433117
 H         5.178682        -0.931354         0.305596
 H         1.636397        -1.850213        -1.144896
 H         1.188907        -2.185059         0.553859
