19
Iteration:  2603
 C        -0.106528         0.367971        -0.159221
 C         1.550964         0.014461        -0.269890
 C         2.398496         0.938098        -1.147275
 C         3.783685         0.708431        -0.492412
 C         3.545869         0.377114         0.973498
 O         2.074030         0.372906         1.076515
 C         4.123662        -0.664737         0.111142
 O         3.279497        -1.890677        -0.067080
 C         1.879884        -1.493533        -0.402507
 H        -0.738503        -0.562813        -0.110524
 H        -0.171687         0.883868         0.793941
 H        -0.633320         1.145321        -0.917450
 H         2.402020         0.659080        -2.264341
 H         2.118992         1.990434        -0.933482
 H         4.637160         1.339429        -0.817454
 H         4.080846         0.948476         1.761339
 H         5.177124        -0.975652         0.098566
 H         1.677452        -1.679635        -1.435682
 H         1.105050        -2.088074         0.194859
