19
Iteration:  3439
 C         0.100399         0.398662        -0.232940
 C         1.513733         0.000276        -0.165910
 C         2.279075         0.298312        -1.417833
 C         3.671441         0.408814        -0.947670
 C         3.600412         0.749561         0.558911
 O         2.227064         0.731679         0.955617
 C         4.049163        -0.600568         0.224389
 O         3.220467        -1.686798         0.489205
 C         1.801984        -1.582013         0.121474
 H        -0.044285         1.103359         0.620843
 H        -0.192939         0.896266        -1.142470
 H        -0.531322        -0.424208        -0.066023
 H         2.278081        -0.464369        -2.289563
 H         2.051474         1.183374        -1.952883
 H         4.474555         0.711190        -1.618466
 H         4.218895         1.597075         1.076407
 H         5.078782        -0.856724         0.264731
 H         1.593662        -2.174652        -0.798086
 H         1.140567        -1.993139         0.999501
