19
Iteration:  3768
 C         0.078845         0.264359        -0.216771
 C         1.570525         0.014553        -0.078277
 C         2.272860         0.054475        -1.432170
 C         3.719943         0.272449        -1.005696
 C         3.603931         0.797675         0.492918
 O         2.242311         1.031398         0.762243
 C         4.045320        -0.615830         0.245774
 O         3.183592        -1.728837         0.358882
 C         1.774630        -1.372132         0.493189
 H        -0.473636         0.156497         0.736814
 H        -0.162311         1.192835        -0.752814
 H        -0.255683        -0.602636        -0.935639
 H         2.133753        -0.882197        -2.086420
 H         1.908598         0.851919        -2.074219
 H         4.450438         0.721043        -1.665614
 H         4.380387         1.578274         0.845630
 H         5.040191        -0.961802         0.374717
 H         1.288667        -2.113955        -0.089523
 H         1.506403        -1.383730         1.606776
