19
Iteration:  3792
 C         0.036637         0.443847        -0.124035
 C         1.526939        -0.016758        -0.156733
 C         2.321363         0.025975        -1.489735
 C         3.734651         0.298327        -1.010395
 C         3.554226         0.832923         0.402335
 O         2.162479         0.880804         0.769001
 C         4.050525        -0.624712         0.163588
 O         3.254088        -1.693412         0.567659
 C         1.832195        -1.422877         0.411911
 H        -0.461739        -0.166635         0.598551
 H        -0.042575         1.544847         0.130660
 H        -0.481184         0.252118        -1.102867
 H         2.296849        -0.889088        -2.041586
 H         2.026533         0.750118        -2.229306
 H         4.527550         0.561480        -1.748291
 H         4.208137         1.510201         0.954648
 H         5.070641        -0.905975         0.391942
 H         1.459657        -2.262426        -0.277246
 H         1.474538        -1.454226         1.460939
