19
Iteration:  3404charge 0 multiplicity 1
 C         0.007864         0.328759        -0.194433
 C         1.511567        -0.046517        -0.151829
 C         2.394033         0.419664        -1.492704
 C         3.746444         0.433611        -0.898667
 C         3.602188         0.679749         0.587152
 O         2.199052         0.757157         0.924429
 C         4.028778        -0.623292         0.177352
 O         3.218579        -1.702226         0.424163
 C         1.780984        -1.485912         0.183801
 H        -0.224014         1.371917        -0.192333
 H        -0.555111        -0.227226        -1.018413
 H        -0.377150        -0.069125         0.707946
 H         2.333861        -0.467520        -2.221957
 H         2.090042         1.318453        -1.905906
 H         4.565960         0.713962        -1.534692
 H         4.184672         1.376668         1.158685
 H         5.074818        -0.994821         0.292585
 H         1.541550        -2.258803        -0.578552
 H         1.244325        -1.738310         1.077013
