19
Iteration:  2230charge 0 multiplicity 1
 C         0.012153         0.296241        -0.170030
 C         1.583175         0.026637        -0.194545
 C         2.417284         1.066266        -0.891333
 C         3.786225         0.728815        -0.359288
 C         3.445355         0.270235         1.052705
 O         2.090714         0.047054         1.216119
 C         4.092489        -0.708817         0.055448
 O         3.157451        -1.746694        -0.203014
 C         1.936672        -1.231816        -0.821137
 H        -0.432295         1.049104        -0.941973
 H        -0.604909        -0.641099        -0.335264
 H        -0.263140         0.777388         0.737230
 H         2.343701         0.890251        -2.063408
 H         2.144026         2.144878        -0.689949
 H         4.616332         1.407282        -0.459116
 H         3.961509         0.751286         1.842424
 H         5.118089        -1.082578         0.106981
 H         2.170185        -1.169519        -1.906806
 H         1.114406        -1.959978        -0.675516
