19
Iteration:  3941charge 0 multiplicity 1
 C         0.104642         0.344696        -0.236501
 C         1.558861        -0.021270        -0.034386
 C         2.333669        -0.155310        -1.372170
 C         3.750127         0.233091        -1.060922
 C         3.519795         0.858595         0.325886
 O         2.198657         1.060637         0.732815
 C         4.037123        -0.580028         0.228418
 O         3.175240        -1.740839         0.370030
 C         1.842462        -1.310405         0.597716
 H         0.041419         1.421079        -0.448795
 H        -0.358248        -0.183456        -1.020906
 H        -0.437365         0.347579         0.769104
 H         2.331064        -1.254991        -1.584002
 H         1.782553         0.339759        -2.136894
 H         4.354530         0.819948        -1.773680
 H         4.156242         1.656261         0.697712
 H         5.032314        -0.776986         0.574449
 H         1.133421        -2.139527         0.115580
 H         1.645655        -1.396741         1.664130
