19
Iteration:  1080charge 0 multiplicity 1
 C         0.073683         0.387083        -0.106662
 C         1.560793         0.114763        -0.183085
 C         2.477640         1.334187        -0.313313
 C         3.703938         0.804590         0.217899
 C         3.348148        -0.280564         1.223620
 O         1.947712        -0.465197         1.087874
 C         4.023033        -0.685106        -0.025055
 O         3.296947        -1.549828        -0.848497
 C         2.044748        -0.893649        -1.288233
 H        -0.484733        -0.543072        -0.542134
 H        -0.260707         0.399238         1.001830
 H        -0.301406         1.293550        -0.622684
 H         2.577792         1.818141        -1.331663
 H         2.334118         2.173572         0.375134
 H         4.536672         1.524555         0.226353
 H         3.757339        -0.288953         2.224374
 H         5.087586        -1.049144         0.069423
 H         2.190649        -0.384354        -2.227160
 H         1.279219        -1.747218        -1.445806
