19
Iteration:  4016charge 0 multiplicity 1
 C         0.084524         0.222810        -0.118274
 C         1.571929        -0.059983        -0.185962
 C         2.255780         0.051040        -1.513698
 C         3.712727         0.118327        -1.054778
 C         3.634205         0.865107         0.348968
 O         2.287969         1.069226         0.644548
 C         3.981116        -0.568944         0.209215
 O         3.174751        -1.627503         0.736486
 C         1.795197        -1.410703         0.454155
 H         0.100325         0.981786         0.730520
 H        -0.371848         0.805284        -0.877239
 H        -0.655000        -0.657827         0.120704
 H         1.821388        -0.768169        -2.030560
 H         1.992526         0.993355        -1.972945
 H         4.541539         0.253822        -1.810510
 H         4.364690         1.635205         0.507673
 H         5.041320        -0.746594         0.410548
 H         1.496484        -2.149587        -0.282167
 H         1.265327        -1.641882         1.319961
