19
Iteration:  3005charge 0 multiplicity 1
 C        -0.026522         0.256517        -0.148310
 C         1.503789         0.023796        -0.191634
 C         2.358173         0.624397        -1.363846
 C         3.775671         0.578462        -0.672952
 C         3.583408         0.563740         0.761284
 O         2.173289         0.561870         1.024546
 C         4.085445        -0.686244         0.142130
 O         3.198450        -1.745947         0.245238
 C         1.845057        -1.455136        -0.214681
 H        -0.362693         0.127084         0.916106
 H        -0.220292         1.238556        -0.473494
 H        -0.524786        -0.495612        -0.790968
 H         2.315381         0.048512        -2.295721
 H         2.177850         1.758785        -1.485099
 H         4.502824         1.245364        -1.192096
 H         4.187255         1.112416         1.549772
 H         5.120559        -0.957788         0.270517
 H         1.710705        -1.764799        -1.225120
 H         1.067112        -1.870347         0.554119
