19
Iteration:  4509
 C        -0.013173         0.354414        -0.216222
 C         1.489967         0.013714        -0.135471
 C         2.240267        -0.139628        -1.377550
 C         3.676615         0.061271        -1.036295
 C         3.614083         0.895028         0.249437
 O         2.201083         1.156168         0.496200
 C         4.146437        -0.614745         0.266662
 O         3.270717        -1.652055         0.606482
 C         1.885332        -1.423644         0.703024
 H        -0.250639         0.763054        -1.143788
 H        -0.616504        -0.607685        -0.313072
 H        -0.257598         1.137192         0.615889
 H         1.973454        -1.135479        -1.798126
 H         1.991994         0.642790        -2.007603
 H         4.444888         0.439029        -1.774906
 H         4.228954         1.772614         0.470631
 H         5.141552        -0.839303         0.741945
 H         1.157823        -2.198848         0.306056
 H         1.590419        -1.409324         1.696188
