19
Iteration:  2742
 C         0.033304         0.270798        -0.285391
 C         1.554688         0.098841        -0.098098
 C         2.416946         0.644920        -1.251666
 C         3.753089         0.703947        -0.524687
 C         3.462773         0.455740         0.951194
 O         2.089041         0.503116         1.220168
 C         4.048410        -0.734717         0.165622
 O         3.243329        -1.758226        -0.403854
 C         1.879865        -1.418383        -0.077313
 H        -0.455918         1.050627         0.353429
 H        -0.148757         0.654012        -1.365357
 H        -0.467554        -0.642763        -0.257765
 H         2.482753        -0.156810        -2.109374
 H         2.209203         1.618677        -1.676927
 H         4.620704         1.362431        -0.832179
 H         4.087482         0.927897         1.733905
 H         5.152039        -0.948821         0.285478
 H         1.137032        -1.960529        -0.783581
 H         1.695211        -1.712695         0.914054
