19
Iteration:  3769charge 0 multiplicity 1
 C         0.076381         0.259631        -0.212657
 C         1.571544         0.017289        -0.085085
 C         2.274705         0.050431        -1.439141
 C         3.718605         0.267561        -1.006857
 C         3.602427         0.796287         0.500438
 O         2.246412         1.028935         0.764702
 C         4.047904        -0.603007         0.245116
 O         3.186577        -1.734768         0.363460
 C         1.769717        -1.366868         0.493645
 H        -0.475798         0.160651         0.712570
 H        -0.126046         1.230902        -0.719293
 H        -0.274376        -0.569917        -0.941429
 H         2.129651        -0.862567        -2.044699
 H         1.888780         0.826890        -2.073317
 H         4.445865         0.713029        -1.684062
 H         4.360178         1.582317         0.838035
 H         5.042440        -0.934449         0.349948
 H         1.282948        -2.140247        -0.137706
 H         1.487547        -1.385933         1.589736
