19
Iteration:  1672charge 0 multiplicity 1
 C         0.108391         0.254342        -0.144479
 C         1.588462         0.065925        -0.158698
 C         2.482024         1.344254        -0.673722
 C         3.832560         0.749493        -0.086629
 C         3.357782        -0.004398         1.194676
 O         1.961219        -0.099898         1.202744
 C         3.964819        -0.725680         0.046983
 O         3.282496        -1.675046        -0.697253
 C         1.942344        -1.161800        -0.959432
 H        -0.454208        -0.468615        -0.758733
 H        -0.377768         0.355117         0.835025
 H        -0.076205         1.255096        -0.640587
 H         2.425588         1.570545        -1.696664
 H         2.128098         2.113189         0.092395
 H         4.643320         1.510532        -0.150873
 H         3.736694         0.079224         2.252149
 H         4.959667        -1.053239         0.198393
 H         2.007698        -0.923215        -2.158671
 H         1.209560        -1.964955        -0.816946
