19
Iteration:  2693charge 0 multiplicity 1
 C         0.091655         0.357070        -0.164427
 C         1.539232        -0.019016        -0.250156
 C         2.458920         0.799583        -1.178176
 C         3.755010         0.647237        -0.521077
 C         3.445792         0.532427         0.912038
 O         2.002750         0.419070         1.106552
 C         4.056078        -0.702576         0.159732
 O         3.266150        -1.796474        -0.283220
 C         1.905380        -1.519333        -0.202528
 H        -0.119908         1.257914        -0.741041
 H        -0.648040        -0.413218        -0.481476
 H        -0.207160         0.628160         0.990643
 H         2.339197         0.437551        -2.166527
 H         2.193197         1.953520        -1.243526
 H         4.530117         1.327446        -0.813177
 H         3.985318         0.943477         1.735253
 H         5.046289        -0.969917         0.517601
 H         1.453639        -2.082062        -0.952734
 H         1.519761        -1.834343         0.785874
