19
Iteration:  4504
 C         0.019946         0.327611        -0.181059
 C         1.484890         0.018940        -0.147059
 C         2.235060        -0.122487        -1.442072
 C         3.681026         0.065035        -1.023624
 C         3.600822         0.871721         0.227685
 O         2.191105         1.137191         0.506578
 C         4.146800        -0.607382         0.275611
 O         3.289085        -1.664688         0.648072
 C         1.860351        -1.387708         0.694565
 H        -0.310098         0.784423        -1.196523
 H        -0.607414        -0.539075        -0.048420
 H        -0.227241         1.131239         0.454556
 H         1.981690        -1.064970        -1.914914
 H         2.053221         0.812199        -2.115697
 H         4.449301         0.436800        -1.677929
 H         4.218970         1.734480         0.492667
 H         5.171354        -0.848223         0.545795
 H         1.266583        -2.187070         0.240916
 H         1.401492        -1.424238         1.778161
