19
Iteration:  1690
 C         0.070404         0.394122        -0.152412
 C         1.560092         0.091785        -0.193711
 C         2.510149         1.169538        -0.688947
 C         3.791413         0.795805         0.017983
 C         3.346319        -0.007723         1.182379
 O         1.918991        -0.096507         1.268468
 C         4.052528        -0.727942         0.067672
 O         3.343895        -1.598669        -0.848796
 C         1.922040        -1.239912        -0.911897
 H        -0.550727        -0.212190        -0.904566
 H        -0.308296         0.010578         0.773638
 H        -0.291134         1.398259        -0.203159
 H         2.525910         0.938927        -1.852666
 H         2.233437         2.198005        -0.579217
 H         4.593967         1.461220         0.127335
 H         3.779273         0.128911         2.135454
 H         5.112631        -1.062948         0.202398
 H         1.718558        -1.070091        -1.986028
 H         1.363792        -2.029507        -0.415301
