19
Iteration:  3338
 C         0.012077         0.273460        -0.235589
 C         1.551062         0.057007        -0.151558
 C         2.422385         0.233248        -1.372255
 C         3.755391         0.510821        -0.757321
 C         3.565608         0.695880         0.666242
 O         2.161915         0.785996         0.915812
 C         4.079609        -0.662703         0.195862
 O         3.160299        -1.723069         0.034692
 C         1.800502        -1.377265         0.320527
 H        -0.400163        -0.046373        -1.139561
 H        -0.565453        -0.433619         0.435407
 H        -0.254657         1.285759        -0.136113
 H         2.550998        -0.783529        -1.921470
 H         2.010122         0.902864        -2.051530
 H         4.561522         0.960825        -1.345724
 H         4.160857         1.275268         1.287245
 H         5.154305        -0.972967         0.367240
 H         1.205197        -2.089033        -0.290368
 H         1.603127        -1.491508         1.473619
