19
Iteration:  1319charge 0 multiplicity 1
 C         0.080254         0.399387        -0.216632
 C         1.546611         0.085078        -0.113882
 C         2.540345         1.207523        -0.603370
 C         3.794669         0.795232         0.117831
 C         3.284688        -0.236628         1.228588
 O         1.901621        -0.256832         1.256428
 C         4.052936        -0.721172         0.054867
 O         3.368745        -1.344651        -1.071690
 C         1.930261        -1.208052        -0.904896
 H        -0.514684        -0.145171        -0.947081
 H        -0.383618         0.363041         0.739080
 H        -0.214851         1.393064        -0.409346
 H         2.815817         1.115100        -1.617091
 H         2.198490         2.195150        -0.264863
 H         4.492758         1.581940         0.317210
 H         3.750853        -0.186428         2.189291
 H         5.057612        -1.091169         0.199528
 H         1.510798        -1.161792        -1.929595
 H         1.621739        -1.951098        -0.127042
