19
Iteration:   720
 C         0.024620         0.501237        -0.172979
 C         1.506867         0.046144        -0.164167
 C         2.547490         1.297260        -0.161117
 C         3.762870         0.726992         0.531744
 C         3.314088        -0.592563         1.216116
 O         1.885124        -0.669544         1.105454
 C         4.062084        -0.628620        -0.032034
 O         3.374112        -1.099061        -1.180569
 C         1.994523        -0.886919        -1.312166
 H        -0.044691         1.566230         0.002639
 H        -0.414516         0.316805        -1.170619
 H        -0.432467        -0.157977         0.596471
 H         2.774856         1.700367        -1.180157
 H         2.207398         2.074387         0.484694
 H         4.444634         1.485040         0.859010
 H         3.660082        -0.726011         2.228109
 H         5.135821        -1.016872        -0.087404
 H         1.841742        -0.362508        -2.226172
 H         1.543942        -1.808043        -1.317652
