19
Iteration:  3295
 C         0.060486         0.405495        -0.266183
 C         1.491326        -0.076876        -0.151016
 C         2.334585         0.415778        -1.287030
 C         3.765195         0.500112        -0.825031
 C         3.535191         0.741140         0.678687
 O         2.162300         0.788704         0.848097
 C         4.005086        -0.664932         0.252747
 O         3.268562        -1.829983         0.167820
 C         1.853437        -1.592358         0.208865
 H        -0.529172        -0.497752        -0.253079
 H        -0.106516         0.947593         0.717644
 H         0.009337         0.994800        -1.093577
 H         2.116608        -0.227154        -2.292576
 H         1.976408         1.360227        -1.585767
 H         4.580551         0.928210        -1.447187
 H         4.018102         1.567721         1.072662
 H         5.099103        -0.784776         0.243288
 H         1.375033        -2.301947        -0.411647
 H         1.445846        -1.700240         1.344462
