19
Iteration:  1498
 C         0.095606         0.369530        -0.241454
 C         1.626969         0.113701        -0.159575
 C         2.464030         1.294218        -0.586846
 C         3.775553         0.818037         0.054614
 C         3.318826        -0.107677         1.190719
 O         1.957610        -0.212395         1.197121
 C         4.013240        -0.681469         0.047179
 O         3.366845        -1.581505        -0.898993
 C         1.880774        -1.198458        -0.874477
 H        -0.275827         0.697829         0.749791
 H        -0.182774         1.121678        -0.932222
 H        -0.388916        -0.573998        -0.539410
 H         2.402444         1.439187        -1.596517
 H         2.121613         2.258252        -0.132716
 H         4.679447         1.338016         0.133208
 H         3.725477        -0.181833         2.168587
 H         5.048599        -1.135549         0.161224
 H         1.549051        -1.309018        -1.971148
 H         1.449818        -1.901712        -0.113541
