19
Iteration:  4333
 C        -0.013134         0.316605        -0.256219
 C         1.509928         0.002873        -0.015842
 C         2.276527        -0.034895        -1.376568
 C         3.742866         0.190078        -0.992087
 C         3.573175         0.829334         0.313976
 O         2.178656         1.119352         0.514463
 C         4.032728        -0.648731         0.221463
 O         3.248873        -1.731743         0.443350
 C         1.930325        -1.386492         0.804514
 H        -0.806122        -0.131354         0.335886
 H        -0.007854         1.366125        -0.218438
 H        -0.256860        -0.103462        -1.341064
 H         2.288065        -0.881022        -2.104968
 H         1.916498         0.823508        -1.975727
 H         4.452299         0.492433        -1.743769
 H         4.303624         1.548724         0.829393
 H         5.070792        -0.795796         0.338987
 H         1.334150        -2.098886         0.238045
 H         1.658919        -1.264995         1.807217
