19
Iteration:  3530charge 0 multiplicity 1
 C        -0.010486         0.352690        -0.295174
 C         1.467143         0.007709        -0.073362
 C         2.318367         0.107666        -1.391936
 C         3.747967         0.404411        -0.855926
 C         3.561270         0.669056         0.621867
 O         2.161642         0.938605         0.806871
 C         4.101791        -0.650419         0.182070
 O         3.243462        -1.765670         0.176619
 C         1.898105        -1.390497         0.451762
 H        -0.736375        -0.442934        -0.268209
 H        -0.260828         1.115118         0.395568
 H        -0.109181         0.870166        -1.293223
 H         2.291428        -0.748351        -2.028483
 H         1.839755         0.968971        -2.018805
 H         4.457926         0.991440        -1.443748
 H         4.108381         1.437203         1.055145
 H         5.150894        -1.032499         0.318188
 H         1.292520        -2.163991         0.119452
 H         1.896713        -1.394922         1.636292
