19
Iteration:  3315
 C         0.073402         0.360418        -0.275498
 C         1.551004        -0.005984        -0.100575
 C         2.396010         0.296610        -1.451267
 C         3.759943         0.469362        -0.826049
 C         3.495615         0.699030         0.714741
 O         2.106348         0.787967         0.979401
 C         4.072324        -0.633936         0.112637
 O         3.222790        -1.778999         0.099888
 C         1.837210        -1.480402         0.308505
 H        -0.562779        -0.351891        -0.710853
 H        -0.455280         0.487448         0.712959
 H         0.125040         1.288483        -0.826446
 H         2.306892        -0.548314        -2.210525
 H         1.941864         1.154440        -1.898437
 H         4.516531         1.090484        -1.376126
 H         4.085523         1.191906         1.470398
 H         5.091489        -0.716169         0.500959
 H         1.215683        -2.246339        -0.291665
 H         1.664394        -1.583775         1.449808
