19
Iteration:  4153
 C         0.006119         0.393480        -0.132839
 C         1.478802        -0.130642        -0.143360
 C         2.318899        -0.076890        -1.451322
 C         3.826439         0.226042        -0.963591
 C         3.543592         0.855785         0.360104
 O         2.151775         1.053670         0.498319
 C         4.049547        -0.604274         0.179086
 O         3.267550        -1.760529         0.459567
 C         1.843769        -1.323484         0.753014
 H        -0.467147         0.186551         0.908664
 H         0.176268         1.559449        -0.152261
 H        -0.640057         0.063101        -0.932249
 H         2.278858        -1.021081        -2.003918
 H         1.774857         0.794258        -1.939393
 H         4.589759         0.404155        -1.732571
 H         4.257459         1.658527         0.650729
 H         5.075063        -0.727190         0.444324
 H         1.197302        -2.169233         0.333279
 H         1.665599        -1.142724         1.757327
