19
Iteration:  4923charge 0 multiplicity 1
 C         0.008553         0.358137        -0.283859
 C         1.525896        -0.004609        -0.058726
 C         2.249439        -0.183913        -1.372679
 C         3.722718         0.120340        -1.077794
 C         3.600496         0.933605         0.212945
 O         2.253710         1.044328         0.540577
 C         4.057719        -0.575723         0.231679
 O         3.245544        -1.672938         0.586089
 C         1.820531        -1.302855         0.822581
 H        -0.006627         1.377693        -0.313969
 H        -0.289063        -0.197501        -1.247570
 H        -0.771086         0.146492         0.482283
 H         2.177862        -1.219012        -1.727336
 H         1.693188         0.385915        -2.081219
 H         4.449113         0.304843        -1.935253
 H         4.317922         1.704213         0.463472
 H         5.150501        -0.868408         0.271565
 H         1.228080        -2.100368         0.369204
 H         1.664242        -1.229273         1.886318
