19
Iteration:  3720charge 0 multiplicity 1
 C         0.064200         0.262265        -0.221188
 C         1.539981         0.061081        -0.224199
 C         2.309235         0.177258        -1.508660
 C         3.711149         0.312171        -0.880962
 C         3.511528         0.698426         0.562509
 O         2.163635         1.000494         0.707444
 C         4.023863        -0.696830         0.157972
 O         3.200329        -1.800866         0.300668
 C         1.952949        -1.334567         0.649478
 H        -0.091612         1.138693         0.490756
 H        -0.320138         0.609225        -1.226727
 H        -0.508948        -0.577050         0.105425
 H         2.160658        -0.721187        -2.235834
 H         1.909572         1.093211        -2.124562
 H         4.505050         0.613341        -1.578520
 H         4.132157         1.256589         1.142619
 H         5.091406        -0.789339         0.538926
 H         1.416382        -2.224311         0.496524
 H         1.947162        -0.974673         1.716207
