19
Iteration:   472charge 0 multiplicity 1
 C         0.044506         0.345673        -0.127543
 C         1.523362         0.115809        -0.112623
 C         2.448508         1.388161         0.030082
 C         3.730959         0.715408         0.584871
 C         3.290985        -0.606199         1.168162
 O         1.922671        -0.806647         0.908190
 C         4.084822        -0.686542        -0.121846
 O         3.273184        -1.290507        -1.076901
 C         2.159313        -0.427450        -1.451691
 H        -0.052088         1.435677        -0.083341
 H        -0.556772         0.042845        -0.964567
 H        -0.380864        -0.201721         0.869236
 H         2.551844         2.068078        -0.849408
 H         2.049659         2.129160         0.912491
 H         4.554917         1.236050         1.135230
 H         3.618177        -1.024689         2.105458
 H         5.168585        -1.012749        -0.097479
 H         2.453563         0.267142        -2.218428
 H         1.482770        -1.197125        -1.897411
