19
Iteration:  2464charge 0 multiplicity 1
 C         0.027727         0.306821        -0.190997
 C         1.562973         0.013852        -0.138895
 C         2.463082         0.909860        -1.100464
 C         3.758445         0.708637        -0.400937
 C         3.465619         0.375904         1.062983
 O         2.094926         0.255883         1.168192
 C         4.077141        -0.666943         0.063054
 O         3.175839        -1.762335        -0.202462
 C         1.873102        -1.399424        -0.573388
 H        -0.042803         1.185792        -0.740223
 H        -0.560339        -0.494015        -0.540379
 H        -0.296466         0.569974         0.861447
 H         2.456087         0.413018        -2.004352
 H         2.108105         2.037968        -1.246838
 H         4.546963         1.422169        -0.674714
 H         4.087407         0.856184         1.841435
 H         5.172628        -0.896879         0.005147
 H         1.630761        -1.590561        -1.718495
 H         1.246195        -2.033611        -0.006706
