19
Iteration:  1965charge 0 multiplicity 1
 C         0.085066         0.413197        -0.278476
 C         1.511420         0.068049        -0.143268
 C         2.514692         1.037333        -0.782892
 C         3.799107         0.812775        -0.092797
 C         3.416762         0.060438         1.154534
 O         1.995228        -0.124750         1.305599
 C         4.028845        -0.651726        -0.010211
 O         3.274412        -1.520956        -0.718747
 C         1.882152        -1.304072        -0.695682
 H        -0.348240        -0.155084        -1.096287
 H        -0.476265         0.050144         0.644681
 H        -0.225593         1.518942        -0.416066
 H         2.538537         0.879672        -1.904998
 H         2.174013         2.040430        -0.829338
 H         4.638774         1.466142        -0.155150
 H         3.883913         0.288210         2.049010
 H         5.077324        -1.025329         0.023989
 H         1.629856        -1.539484        -1.711515
 H         1.355433        -2.074910         0.063907
