19
Iteration:  1665charge 0 multiplicity 1
 C         0.073137         0.248002        -0.196161
 C         1.584939         0.093274        -0.232097
 C         2.459885         1.313303        -0.536369
 C         3.845133         0.768063        -0.095055
 C         3.414066         0.000706         1.172033
 O         1.991743        -0.093029         1.203950
 C         3.959056        -0.729823         0.034304
 O         3.239599        -1.671909        -0.619729
 C         1.955036        -1.167914        -1.032101
 H        -0.500746        -0.558659        -0.601836
 H        -0.357724         0.395861         0.852074
 H        -0.270392         1.137454        -0.760028
 H         2.304799         1.529635        -1.615872
 H         2.134108         2.209148        -0.001310
 H         4.801600         1.383454        -0.212124
 H         3.842710         0.044185         2.187119
 H         5.012656        -1.011278         0.111573
 H         2.063401        -0.905396        -1.986497
 H         1.191233        -1.950924        -0.826320
