19
Iteration:  3885charge 0 multiplicity 1
 C         0.066183         0.229100        -0.148133
 C         1.554380        -0.011164        -0.184775
 C         2.311713         0.166781        -1.570994
 C         3.741343         0.172101        -1.029289
 C         3.584347         0.842231         0.360419
 O         2.261880         0.988603         0.716408
 C         4.027052        -0.658588         0.157913
 O         3.191491        -1.676521         0.636103
 C         1.751966        -1.399436         0.593488
 H        -0.318438         0.266392        -1.207288
 H        -0.419011        -0.513123         0.411795
 H        -0.168763         1.181810         0.361650
 H         2.059802        -0.552918        -2.345703
 H         1.992737         1.111520        -2.006454
 H         4.588713         0.459847        -1.623340
 H         4.245635         1.744540         0.619894
 H         5.033947        -0.752444         0.435745
 H         1.386007        -2.255508        -0.140974
 H         1.326560        -1.396963         1.598673
