19
Iteration:  3115
 C         0.035735         0.336529        -0.183471
 C         1.576417        -0.064302        -0.122769
 C         2.414254         0.531431        -1.349443
 C         3.837499         0.508610        -0.724046
 C         3.428670         0.589632         0.822137
 O         2.049697         0.776029         0.926896
 C         4.012583        -0.672618         0.116323
 O         3.252909        -1.808559        -0.088467
 C         1.890556        -1.519411         0.213722
 H        -0.294520         0.340241        -1.236559
 H        -0.652685        -0.256749         0.329580
 H        -0.130474         1.387129         0.099226
 H         2.431919        -0.031932        -2.263845
 H         2.234128         1.673385        -1.526335
 H         4.648384         1.169338        -1.070163
 H         3.892487         1.124795         1.586677
 H         5.067674        -1.003403         0.353604
 H         1.340351        -2.252954        -0.365065
 H         1.691631        -1.781739         1.281010
