19
Iteration:  1589
 C        -0.030018         0.372900        -0.141783
 C         1.529766         0.020437        -0.158510
 C         2.514387         1.230773        -0.589129
 C         3.843459         0.789680         0.065741
 C         3.378303        -0.058825         1.190824
 O         1.959573        -0.070712         1.147586
 C         4.037260        -0.749600         0.049719
 O         3.330274        -1.545025        -0.821526
 C         1.954836        -1.293847        -1.008817
 H        -0.389069         0.153562         0.809912
 H        -0.193084         1.495288        -0.138062
 H        -0.696486        -0.138120        -0.832977
 H         2.667184         1.425979        -1.682019
 H         2.185893         2.193736        -0.273481
 H         4.694543         1.548589         0.120447
 H         3.664948        -0.039730         2.287693
 H         5.038711        -1.001689         0.251700
 H         1.718185        -1.026346        -2.204991
 H         1.355949        -2.154998        -0.590836
