19
Iteration:  2880charge 0 multiplicity 1
 C        -0.016167         0.265999        -0.218142
 C         1.530324         0.012706        -0.135446
 C         2.411138         0.700000        -1.255602
 C         3.835623         0.590719        -0.668000
 C         3.528703         0.557699         0.841359
 O         2.125837         0.590359         1.114692
 C         4.046920        -0.661792         0.149437
 O         3.246242        -1.811923        -0.055784
 C         1.814938        -1.502509        -0.187853
 H        -0.352539         0.226738        -1.225643
 H        -0.593021        -0.514769         0.349308
 H        -0.165821         1.288081         0.218380
 H         2.298374         0.086551        -2.183837
 H         2.072021         1.793590        -1.436315
 H         4.652190         1.309514        -0.934188
 H         4.004852         1.100896         1.664905
 H         5.069428        -1.008979         0.456824
 H         1.387378        -1.940554        -1.070379
 H         1.280396        -1.986541         0.789028
