19
Iteration:  1844
 C         0.037145         0.389630        -0.095683
 C         1.542327         0.104879        -0.203365
 C         2.377634         1.261660        -0.647140
 C         3.740315         0.737193        -0.191178
 C         3.400255         0.099205         1.121964
 O         2.018927        -0.142747         1.184223
 C         4.036862        -0.723899         0.097449
 O         3.266596        -1.754420        -0.510523
 C         2.079627        -1.242860        -1.064087
 H        -0.232496         0.845926         0.939649
 H        -0.018829         1.257430        -0.784705
 H        -0.804354        -0.351708        -0.340185
 H         2.348861         1.618984        -1.762309
 H         2.160569         2.247513        -0.162601
 H         4.654997         1.397186        -0.267145
 H         3.760593         0.291789         2.164313
 H         5.044019        -0.995115         0.108294
 H         2.084730        -1.061407        -2.082031
 H         1.282092        -2.072184        -0.935819
