19
Iteration:  2338charge 0 multiplicity 1
 C         0.094122         0.462269        -0.251294
 C         1.561315         0.006975        -0.120148
 C         2.459057         0.920061        -1.025594
 C         3.785307         0.763974        -0.314467
 C         3.316346         0.157848         1.123591
 O         1.945786         0.310690         1.233143
 C         3.964799        -0.660463         0.105520
 O         3.334699        -1.666837        -0.741274
 C         1.984543        -1.558825        -0.278014
 H        -0.420278         0.275920         0.763138
 H         0.062227         1.609383        -0.321107
 H        -0.356674        -0.073842        -1.081005
 H         2.642717         0.510020        -2.176980
 H         2.183029         1.949090        -1.264186
 H         4.677019         1.337520        -0.543924
 H         3.894247         0.356557         2.045207
 H         5.072522        -0.921933         0.220750
 H         1.409886        -2.009070        -1.204531
 H         1.775500        -2.080190         0.685359
