19
Iteration:  4412
 C         0.083691         0.380380        -0.179331
 C         1.538288        -0.049291        -0.128314
 C         2.200613        -0.047437        -1.493657
 C         3.652696         0.142384        -1.049747
 C         3.572913         0.876915         0.290540
 O         2.223910         0.989652         0.586127
 C         4.039358        -0.596402         0.200701
 O         3.253730        -1.622525         0.827133
 C         1.921390        -1.425496         0.523679
 H        -0.574647        -0.411748        -0.114168
 H        -0.184373         1.136829         0.663498
 H        -0.018960         0.873547        -1.194104
 H         1.859188        -0.933842        -2.157728
 H         1.996167         0.893771        -1.972836
 H         4.445803         0.371140        -1.859758
 H         4.173500         1.742378         0.437692
 H         5.147661        -0.797175         0.300537
 H         1.602799        -2.204560        -0.133379
 H         1.228889        -1.536293         1.345807
