19
Iteration:  2994charge 0 multiplicity 1
 C        -0.014076         0.257416        -0.213172
 C         1.528031         0.086899        -0.138970
 C         2.382747         0.608233        -1.325154
 C         3.736008         0.585750        -0.708767
 C         3.601207         0.570574         0.848846
 O         2.193549         0.566873         1.073333
 C         4.103043        -0.673786         0.125755
 O         3.179552        -1.749942         0.165293
 C         1.815688        -1.433996        -0.188102
 H        -0.454664         0.354346         0.823610
 H        -0.488304         1.001817        -0.819910
 H        -0.413328        -0.681428        -0.596967
 H         2.346685        -0.083154        -2.144756
 H         1.891189         1.559189        -1.823080
 H         4.653977         1.017231        -1.173284
 H         4.128449         1.320826         1.534539
 H         5.084900        -1.093968         0.113126
 H         1.624987        -1.889168        -1.154852
 H         1.249192        -2.218207         0.510234
