19
Iteration:  4903
 C         0.070842         0.319156        -0.185952
 C         1.521005        -0.073629        -0.175033
 C         2.218376        -0.191139        -1.537297
 C         3.709542         0.081100        -1.096767
 C         3.588139         0.870211         0.206075
 O         2.269351         1.003478         0.643570
 C         4.114773        -0.578196         0.215358
 O         3.194068        -1.541113         0.692246
 C         1.805608        -1.269736         0.738892
 H        -0.013307         1.320964         0.130256
 H        -0.400854         0.087326        -1.203296
 H        -0.509591        -0.192305         0.535569
 H         2.171118        -1.109148        -2.198552
 H         2.011218         0.671171        -2.174999
 H         4.464632         0.306173        -1.900183
 H         4.200117         1.801391         0.400428
 H         5.119899        -0.779807         0.621139
 H         1.127570        -2.232022         0.627829
 H         1.500548        -0.782343         1.689899
