19
Iteration:    82
 C        -0.086137         0.337715        -0.100510
 C         1.560359         0.186144        -0.126524
 C         2.536051         1.331407         0.416314
 C         3.737002         0.531826         0.834022
 C         3.226479        -0.958646         1.070159
 O         1.851934        -0.970694         0.783262
 C         4.013661        -0.610105        -0.113534
 O         3.440399        -0.907366        -1.349478
 C         2.178939        -0.228379        -1.522763
 H        -0.524249        -0.097205        -1.065829
 H        -0.400442        -0.178585         0.797018
 H        -0.389627         1.401195        -0.113977
 H         2.774917         2.090096        -0.385126
 H         2.089153         1.799884         1.336469
 H         4.616827         0.870832         1.379033
 H         3.586664        -1.559407         1.879862
 H         5.100213        -0.816447        -0.073069
 H         2.391994         0.648414        -2.157587
 H         1.496398        -0.856483        -2.187347
