19
Iteration:   906
 C         0.073022         0.246342        -0.252648
 C         1.573918         0.162976        -0.132279
 C         2.560726         1.340952        -0.115931
 C         3.833499         0.705451         0.339623
 C         3.277082        -0.383508         1.258470
 O         1.922441        -0.422227         1.170705
 C         3.993551        -0.734211        -0.051218
 O         3.343570        -1.256163        -1.146447
 C         1.919321        -0.907199        -1.240630
 H        -0.330376         1.018090        -0.902776
 H        -0.273319        -0.631307        -0.622424
 H        -0.447252         0.482289         0.663386
 H         2.565078         1.712116        -1.178946
 H         2.253221         2.137413         0.575890
 H         4.697981         1.395904         0.482758
 H         3.719342        -0.775238         2.188360
 H         4.983460        -1.100743         0.035019
 H         1.908693        -0.370196        -2.212694
 H         1.311063        -1.838944        -1.225318
