19
Iteration:  4368
 C         0.044401         0.193308        -0.114079
 C         1.591503         0.050324        -0.179122
 C         2.314368        -0.085750        -1.515043
 C         3.724850         0.157077        -0.976312
 C         3.571269         0.870608         0.288551
 O         2.206574         1.022217         0.618393
 C         4.025534        -0.607214         0.261510
 O         3.157936        -1.673468         0.528667
 C         1.847944        -1.217559         0.610920
 H        -0.399640        -0.524484         0.427780
 H        -0.159414         1.135291         0.449674
 H        -0.393232         0.395314        -1.077424
 H         2.423082        -1.165961        -1.877080
 H         2.018545         0.579393        -2.296349
 H         4.507107         0.446763        -1.757960
 H         4.161588         1.627260         0.713145
 H         5.089053        -0.899023         0.431768
 H         1.235763        -2.009872         0.313773
 H         1.667183        -1.109126         1.680909
