19
Iteration:  2809charge 0 multiplicity 1
 C         0.016007         0.277189        -0.143777
 C         1.528104         0.052032        -0.145853
 C         2.419915         0.711275        -1.287085
 C         3.737013         0.590157        -0.645293
 C         3.520747         0.535271         0.908403
 O         2.102027         0.454481         1.144248
 C         4.045469        -0.634663         0.172439
 O         3.210280        -1.777598         0.022257
 C         1.888033        -1.414382        -0.350664
 H        -0.520142        -0.644711         0.303077
 H        -0.055813         1.233632         0.445445
 H        -0.171232         0.513863        -1.197118
 H         2.267401        -0.009213        -2.268464
 H         2.180898         1.700313        -1.544989
 H         4.594545         0.967915        -1.143962
 H         4.189111         0.973001         1.608676
 H         5.134563        -0.875139         0.115601
 H         1.727504        -1.805739        -1.452404
 H         1.209790        -1.923167         0.263809
