19
Iteration:  2892
 C        -0.022809         0.243920        -0.233180
 C         1.517189        -0.021996        -0.144338
 C         2.467180         0.523324        -1.229207
 C         3.844586         0.661447        -0.607078
 C         3.553552         0.619350         0.915622
 O         2.156914         0.613957         1.093040
 C         4.020284        -0.632826         0.183749
 O         3.178226        -1.750023        -0.187882
 C         1.797771        -1.485556        -0.110890
 H        -0.304725         0.571580        -1.210153
 H        -0.649315        -0.633504         0.153648
 H        -0.300216         1.070430         0.424029
 H         2.418985         0.025611        -2.169467
 H         2.065399         1.636207        -1.466136
 H         4.671650         0.945344        -1.300700
 H         4.226603         1.061719         1.615679
 H         5.098245        -0.971719         0.346058
 H         1.454981        -1.836580        -1.041938
 H         1.244879        -2.214417         0.751400
