19
Iteration:  4880charge 0 multiplicity 1
 C         0.034280         0.302726        -0.092955
 C         1.545129         0.016197        -0.136451
 C         2.270288        -0.083953        -1.550054
 C         3.673999         0.101202        -1.155021
 C         3.620335         0.810133         0.223614
 O         2.239870         1.054836         0.467520
 C         4.024242        -0.609578         0.182664
 O         3.228847        -1.575138         0.922658
 C         1.862111        -1.323480         0.649548
 H        -0.112934         1.162420         0.441795
 H        -0.514074         0.192706        -1.103518
 H        -0.482729        -0.411765         0.574968
 H         2.145237        -1.118236        -2.019822
 H         2.127126         0.659763        -2.323710
 H         4.580379         0.227881        -1.833535
 H         4.137437         1.651691         0.654550
 H         5.134986        -0.848510         0.219214
 H         1.323736        -2.198362         0.040882
 H         1.223072        -1.162430         1.537873
