19
Iteration:   250
 C         0.044168         0.434106        -0.184970
 C         1.578016         0.109330        -0.195166
 C         2.392398         1.290997         0.326738
 C         3.783037         0.673469         0.673738
 C         3.280148        -0.745470         1.245102
 O         1.901800        -0.941603         0.900451
 C         4.070134        -0.684406        -0.118618
 O         3.351954        -1.057836        -1.302260
 C         2.091254        -0.365186        -1.511781
 H        -0.582364         0.364397        -1.141969
 H        -0.461636        -0.208655         0.586613
 H         0.014495         1.408272         0.271579
 H         2.607125         2.127171        -0.465819
 H         1.898223         1.669774         1.276140
 H         4.629060         1.122552         1.220621
 H         3.527002        -1.113679         2.218595
 H         5.189563        -0.940905        -0.187085
 H         2.242116         0.430806        -2.267423
 H         1.423115        -1.094984        -2.064711
