19
Iteration:  4418
 C         0.128620         0.387182        -0.180284
 C         1.578869        -0.025828        -0.127402
 C         2.140265        -0.069523        -1.522394
 C         3.631637         0.081491        -1.052956
 C         3.560068         0.839770         0.314472
 O         2.215864         1.038433         0.622696
 C         4.046463        -0.561774         0.215039
 O         3.274606        -1.622484         0.839088
 C         1.904567        -1.420178         0.495169
 H        -0.585559        -0.540500        -0.251897
 H        -0.280304         1.043494         0.539663
 H         0.140280         0.959431        -1.148239
 H         1.871797        -0.834782        -2.190319
 H         1.951316         0.952248        -1.950791
 H         4.371591         0.331006        -1.769567
 H         4.174204         1.762525         0.263676
 H         5.087801        -0.759192         0.216896
 H         1.707355        -2.272921        -0.270267
 H         1.253859        -1.687478         1.371014
