19
Iteration:   378charge 0 multiplicity 1
 C         0.075147         0.521787        -0.208298
 C         1.538676        -0.017745        -0.179750
 C         2.562529         1.244957         0.077465
 C         3.751522         0.584423         0.719808
 C         3.227251        -0.674577         1.162892
 O         1.810903        -0.773840         1.049665
 C         4.059959        -0.673339        -0.124544
 O         3.464013        -0.693939        -1.359827
 C         1.962217        -0.840640        -1.302769
 H        -0.749458        -0.267473        -0.423546
 H        -0.024557         0.962567         0.847152
 H         0.086098         1.319749        -0.864713
 H         2.743884         1.776397        -0.867597
 H         2.173573         1.949385         0.731516
 H         4.488932         1.220500         1.212068
 H         3.636003        -1.252070         1.934940
 H         5.115957        -1.146580        -0.094689
 H         1.620811        -0.587369        -2.353079
 H         1.796611        -1.881579        -1.054952
