19
Iteration:  4760charge 0 multiplicity 1
 C        -0.022998         0.306236        -0.197020
 C         1.460459         0.055774        -0.082380
 C         2.178119        -0.230010        -1.412978
 C         3.719123         0.023627        -1.041388
 C         3.615099         0.841507         0.220819
 O         2.208379         1.180569         0.425646
 C         4.110569        -0.561463         0.311745
 O         3.297308        -1.686745         0.628516
 C         1.908503        -1.270890         0.734489
 H        -0.521011        -0.141080         0.556850
 H        -0.132684         1.423459        -0.271429
 H        -0.461983         0.032252        -1.166522
 H         2.095648        -1.334561        -1.768483
 H         1.726917         0.409040        -2.202949
 H         4.416541         0.212424        -1.880124
 H         4.325655         1.583636         0.547197
 H         5.200534        -0.681335         0.500798
 H         1.276505        -1.991939         0.479696
 H         1.782247        -1.003476         1.818614
