19
Iteration:  4883
 C         0.037116         0.286125        -0.092640
 C         1.545381        -0.007037        -0.145903
 C         2.290197        -0.082591        -1.569609
 C         3.689444         0.092702        -1.170733
 C         3.622165         0.785024         0.216455
 O         2.221945         1.024255         0.495386
 C         4.014855        -0.589050         0.191225
 O         3.231567        -1.573014         0.900983
 C         1.858161        -1.268416         0.669582
 H        -0.094043         1.346291         0.363483
 H        -0.503053         0.274921        -1.073278
 H        -0.407844        -0.415170         0.537985
 H         2.075502        -1.169977        -1.919001
 H         2.042274         0.684769        -2.339180
 H         4.569006         0.283199        -1.788583
 H         4.163759         1.659287         0.703115
 H         5.055940        -0.806601         0.206319
 H         1.350246        -2.140260         0.075419
 H         1.230849        -1.151430         1.597834
