19
Iteration:  2117
 C         0.037839         0.366999        -0.271278
 C         1.539452        -0.034431        -0.101222
 C         2.536213         0.945414        -0.877178
 C         3.866279         0.791298        -0.103048
 C         3.398379         0.109261         1.173617
 O         2.008191         0.178362         1.230713
 C         3.986164        -0.673871         0.037438
 O         3.256087        -1.461215        -0.815317
 C         1.889361        -1.468590        -0.531813
 H        -0.615647         0.118735         0.530065
 H        -0.014118         1.460140        -0.375775
 H        -0.328842        -0.210328        -1.206252
 H         2.621798         0.529597        -2.001646
 H         2.188666         1.947503        -0.698828
 H         4.582690         1.584802        -0.325121
 H         3.877450         0.126944         2.198637
 H         4.969716        -1.163213         0.270346
 H         1.276375        -1.886495        -1.375915
 H         1.588381        -2.053263         0.285296
