19
Iteration:  2801
 C         0.065657         0.304300        -0.128421
 C         1.546073         0.101810        -0.211057
 C         2.405542         0.762836        -1.294757
 C         3.720623         0.599891        -0.627104
 C         3.538793         0.495426         0.901043
 O         2.084014         0.482932         1.154539
 C         4.001601        -0.639164         0.183275
 O         3.255350        -1.811439        -0.014684
 C         1.899198        -1.491403        -0.326560
 H        -0.448581        -0.480337         0.422260
 H        -0.155762         1.267538         0.232700
 H        -0.453958         0.244188        -1.165574
 H         2.278063         0.113780        -2.276950
 H         2.151342         1.775629        -1.591419
 H         4.566323         0.964145        -1.164525
 H         4.008661         0.948894         1.772705
 H         5.022739        -0.876981         0.220500
 H         1.613704        -1.899796        -1.274956
 H         1.280090        -2.041138         0.518021
