19
Iteration:  4777
 C         0.055646         0.327734        -0.205664
 C         1.569128        -0.048575        -0.112004
 C         2.265544        -0.231649        -1.466445
 C         3.641265        -0.012258        -1.102441
 C         3.549565         0.909583         0.143590
 O         2.253522         1.133609         0.587118
 C         4.062454        -0.579225         0.253982
 O         3.263031        -1.609694         0.717204
 C         1.850709        -1.266082         0.734496
 H        -0.569177         0.214852         0.822993
 H        -0.070054         1.364690        -0.454050
 H        -0.409100        -0.248614        -1.084071
 H         1.883544        -1.116456        -1.877034
 H         1.968444         0.581477        -2.188048
 H         4.363761         0.178662        -1.856891
 H         4.084077         1.901930         0.288897
 H         5.104102        -0.669475         0.497698
 H         1.325738        -2.215356         0.137326
 H         1.551444        -1.183350         1.785091
