19
Iteration:  3437
 C         0.119195         0.392967        -0.231555
 C         1.525016        -0.026954        -0.154803
 C         2.286881         0.293225        -1.405055
 C         3.674385         0.418891        -0.948348
 C         3.601444         0.754772         0.555947
 O         2.226342         0.726048         0.961786
 C         4.065028        -0.585248         0.217017
 O         3.209948        -1.687331         0.493716
 C         1.772189        -1.558440         0.109485
 H        -0.063401         1.093205         0.580974
 H        -0.232367         0.879393        -1.223789
 H        -0.513490        -0.433550         0.016881
 H         2.253556        -0.495902        -2.273015
 H         2.005920         1.144479        -1.924526
 H         4.450016         0.711322        -1.633583
 H         4.180145         1.604329         1.036190
 H         5.109092        -0.919277         0.267048
 H         1.578653        -2.217408        -0.858856
 H         1.144967        -1.883238         0.910134
