19
Iteration:  3670
 C         0.107651         0.363422        -0.154236
 C         1.530366        -0.004712        -0.134228
 C         2.289551         0.109584        -1.462461
 C         3.698656         0.296714        -1.001746
 C         3.594613         0.819670         0.430069
 O         2.223514         0.810712         0.818327
 C         4.061282        -0.564859         0.259071
 O         3.191717        -1.661310         0.546300
 C         1.797805        -1.420488         0.251995
 H         0.040757         1.468152        -0.253679
 H        -0.424236        -0.164809        -0.881706
 H        -0.348173         0.005922         0.835615
 H         2.253502        -0.859471        -1.954721
 H         1.796580         0.749446        -2.134879
 H         4.452231         0.698253        -1.662100
 H         4.166980         1.674857         0.818859
 H         5.106191        -0.856060         0.329563
 H         1.438531        -2.252570        -0.532173
 H         1.338559        -1.666250         1.229691
