19
Iteration:  3614
 C         0.077471         0.174954        -0.183489
 C         1.499618         0.032531        -0.118806
 C         2.290660         0.322327        -1.508873
 C         3.732796         0.237878        -0.978127
 C         3.591074         0.830354         0.393500
 O         2.265467         0.911586         0.845982
 C         4.072253        -0.673292         0.197719
 O         3.171600        -1.724039         0.610860
 C         1.788030        -1.409401         0.292750
 H        -0.315443         0.401570        -1.230346
 H        -0.416559        -0.666362         0.193289
 H        -0.131657         1.084827         0.479121
 H         2.113228        -0.423165        -2.346401
 H         2.026467         1.307080        -1.717930
 H         4.521899         0.623819        -1.650639
 H         4.232242         1.521865         0.806710
 H         5.168119        -0.843980         0.428963
 H         1.406016        -2.029532        -0.694347
 H         1.203921        -1.783450         1.179882
