19
Iteration:  4715
 C         0.064180         0.217604        -0.152422
 C         1.566084        -0.033257        -0.197968
 C         2.256241        -0.202172        -1.525604
 C         3.740090         0.105917        -1.148964
 C         3.571297         0.875608         0.211506
 O         2.249937         1.056100         0.516534
 C         4.039145        -0.573470         0.327159
 O         3.160112        -1.623649         0.605420
 C         1.862768        -1.141124         0.889206
 H        -0.306129        -0.502794         0.505198
 H        -0.132576         1.249112         0.073787
 H        -0.475523         0.064396        -1.161482
 H         2.008884        -1.274737        -1.810896
 H         1.929225         0.515060        -2.341469
 H         4.515821         0.217315        -1.848911
 H         4.267923         1.748225         0.455343
 H         4.999041        -0.945785         0.587071
 H         1.269136        -2.000685         0.808376
 H         1.590480        -0.592304         1.824118
