19
Iteration:  3743
 C        -0.011541         0.166828        -0.234366
 C         1.546638        -0.011513        -0.103667
 C         2.381521         0.207141        -1.391138
 C         3.841369         0.282629        -1.003599
 C         3.553982         0.773174         0.528890
 O         2.192842         1.039085         0.706541
 C         4.030742        -0.648872         0.150073
 O         3.160423        -1.834980         0.249531
 C         1.813021        -1.297082         0.689870
 H        -0.420114         0.761984         0.665488
 H        -0.128683         0.787839        -1.131678
 H        -0.595504        -0.750890        -0.432989
 H         2.170537        -0.637407        -2.206823
 H         2.041207         1.168696        -1.916524
 H         4.603301         0.647841        -1.693768
 H         4.185284         1.448221         1.011214
 H         5.126372        -0.880667         0.387144
 H         1.135390        -2.049280         0.468579
 H         1.783406        -1.053560         1.795333
