19
Iteration:   351
 C         0.046799         0.508637        -0.050953
 C         1.556645         0.056702        -0.125011
 C         2.518126         1.329533         0.041401
 C         3.694829         0.587658         0.678108
 C         3.129814        -0.836711         1.154346
 O         1.748967        -0.746976         1.043570
 C         4.055378        -0.693536        -0.089807
 O         3.597317        -0.737174        -1.484390
 C         2.096095        -0.800822        -1.320579
 H        -0.348449        -0.027782         0.747116
 H         0.014793         1.551599         0.124185
 H        -0.487286         0.348054        -1.064375
 H         2.687412         1.710335        -0.972521
 H         2.178629         2.215162         0.686063
 H         4.508274         1.130965         1.146365
 H         3.494198        -1.388637         2.062364
 H         5.056392        -0.970147         0.034018
 H         1.660086        -0.412838        -2.229205
 H         1.939636        -1.881885        -1.093352
