19
Iteration:  2616charge 0 multiplicity 1
 C        -0.049254         0.309318        -0.139585
 C         1.521130         0.046954        -0.234436
 C         2.395825         0.964159        -1.097889
 C         3.783287         0.663564        -0.591542
 C         3.486958         0.402238         0.913751
 O         2.128998         0.342378         1.108833
 C         4.004724        -0.738128         0.112662
 O         3.258876        -1.808601         0.005185
 C         1.942768        -1.423803        -0.476677
 H        -0.672940        -0.486814        -0.522993
 H        -0.278407         0.513934         0.885182
 H        -0.100086         1.214204        -0.896401
 H         2.225248         0.751403        -2.118745
 H         2.056081         2.083409        -1.035489
 H         4.704627         1.086108        -0.969469
 H         3.945697         0.794620         1.824878
 H         5.110892        -0.940180         0.308676
 H         1.841625        -1.919776        -1.495580
 H         1.356729        -1.974640         0.243566
