19
Iteration:   820charge 0 multiplicity 1
 C         0.040336         0.325889        -0.164672
 C         1.633699         0.117635        -0.123919
 C         2.523166         1.352520        -0.126730
 C         3.778543         0.747983         0.397406
 C         3.309029        -0.499371         1.283492
 O         1.851778        -0.527545         1.096443
 C         4.047865        -0.681545        -0.043436
 O         3.344228        -1.299880        -1.143272
 C         1.999479        -0.794294        -1.321533
 H        -0.415676        -0.717730        -0.344914
 H        -0.268451         0.852308         0.685400
 H        -0.194922         0.988492        -1.089031
 H         2.575109         1.759243        -1.136057
 H         2.092863         2.117348         0.496597
 H         4.588955         1.504242         0.509553
 H         3.627318        -0.780007         2.346136
 H         5.027550        -1.079006        -0.027748
 H         1.937953        -0.282733        -2.277892
 H         1.324921        -1.611655        -1.365055
