19
Iteration:  3905charge 0 multiplicity 1
 C         0.052634         0.401097        -0.153177
 C         1.535614        -0.067838        -0.185120
 C         2.289218         0.039630        -1.480421
 C         3.752359         0.260282        -1.047746
 C         3.536820         0.771890         0.383977
 O         2.165563         0.908686         0.620615
 C         4.065755        -0.597522         0.267853
 O         3.234198        -1.716955         0.553228
 C         1.869748        -1.353160         0.567019
 H        -0.198904         0.909926        -1.148152
 H        -0.694657        -0.343877         0.159604
 H         0.021610         1.038392         0.708871
 H         2.192696        -0.823950        -2.019415
 H         1.848670         0.851487        -2.100568
 H         4.405272         0.680425        -1.786472
 H         4.232512         1.565475         0.847083
 H         5.118801        -0.833839         0.412314
 H         1.167130        -2.120412         0.226382
 H         1.708532        -1.070824         1.569924
