19
Iteration:  1315
 C         0.068482         0.386246        -0.256765
 C         1.520449         0.110620        -0.088132
 C         2.510980         1.214696        -0.590799
 C         3.798217         0.811299         0.131445
 C         3.329688        -0.250742         1.223955
 O         1.906065        -0.256328         1.273556
 C         4.056418        -0.733296         0.049655
 O         3.355035        -1.364574        -1.045548
 C         1.936179        -1.203930        -0.927757
 H        -0.464705        -0.276477        -0.927128
 H        -0.390110         0.401464         0.796254
 H        -0.197653         1.461061        -0.499369
 H         2.820323         1.238712        -1.692072
 H         2.210778         2.195206        -0.318998
 H         4.594412         1.563081         0.239503
 H         3.742335        -0.125830         2.261399
 H         5.137769        -1.122490         0.058861
 H         1.595510        -1.057821        -1.925616
 H         1.544758        -2.017173        -0.280507
