19
Iteration:  4458charge 0 multiplicity 1
 C        -0.002399         0.264311        -0.112381
 C         1.521226        -0.081620        -0.132205
 C         2.288537         0.000788        -1.570950
 C         3.679421         0.146650        -1.085247
 C         3.683835         0.838034         0.224009
 O         2.298136         0.949943         0.568403
 C         4.096253        -0.655806         0.210799
 O         3.189768        -1.450791         0.877333
 C         1.759383        -1.350719         0.536514
 H        -0.487807        -0.232015        -0.954538
 H        -0.485131        -0.236216         0.773982
 H        -0.170378         1.315502        -0.132361
 H         2.213855        -0.890111        -2.252106
 H         1.868677         0.943058        -1.998085
 H         4.503299         0.408038        -1.688781
 H         4.230874         1.824835         0.382436
 H         5.098437        -1.054043         0.294745
 H         1.329848        -2.141352        -0.042413
 H         1.205205        -1.476356         1.529334
