19
Iteration:  1193
 C         0.070669         0.379480        -0.197219
 C         1.539401         0.071346        -0.164154
 C         2.525503         1.307866        -0.404525
 C         3.821972         0.777438         0.222031
 C         3.305640        -0.263332         1.223414
 O         1.908907        -0.303683         1.204599
 C         4.025606        -0.697883        -0.037424
 O         3.359001        -1.408318        -1.056374
 C         1.964923        -1.101843        -1.024117
 H        -0.206724         1.302589         0.331521
 H        -0.210645         0.586570        -1.212082
 H        -0.539876        -0.501870         0.053784
 H         2.527398         1.655622        -1.463717
 H         2.249002         2.199821         0.063514
 H         4.582694         1.489511         0.572344
 H         3.687904        -0.503395         2.185758
 H         4.982106        -1.090034         0.107939
 H         1.577874        -1.150344        -2.078815
 H         1.438819        -1.929247        -0.491926
