19
Iteration:  3221charge 0 multiplicity 1
 C         0.002323         0.321509        -0.169104
 C         1.583593        -0.045093        -0.149000
 C         2.338737         0.559491        -1.310486
 C         3.779838         0.413394        -0.902009
 C         3.536297         0.702958         0.673694
 O         2.153398         0.685598         0.925252
 C         4.010204        -0.620405         0.155778
 O         3.226933        -1.774959         0.400375
 C         1.872051        -1.569178        -0.045183
 H        -0.142177         0.875206         0.849732
 H        -0.223327         1.201313        -0.885896
 H        -0.575535        -0.522386        -0.458374
 H         1.993391        -0.007951        -2.220714
 H         2.187284         1.626327        -1.506085
 H         4.676487         0.812510        -1.414980
 H         4.086819         1.352844         1.257011
 H         5.077461        -0.826767         0.412446
 H         1.620804        -2.012348        -1.104670
 H         1.159880        -1.857769         0.707816
