19
Iteration:  2738
 C         0.027472         0.283320        -0.289243
 C         1.555527         0.097921        -0.069730
 C         2.447312         0.602492        -1.237074
 C         3.756212         0.709493        -0.508109
 C         3.446087         0.461997         0.937448
 O         2.070486         0.518971         1.222373
 C         4.056098        -0.760683         0.135537
 O         3.260588        -1.739668        -0.401115
 C         1.857248        -1.405143        -0.098241
 H        -0.377847         1.072047         0.350398
 H         0.041750         0.501266        -1.407823
 H        -0.569689        -0.693694        -0.033130
 H         2.606976        -0.008109        -2.015760
 H         2.178916         1.639075        -1.763076
 H         4.441487         1.470671        -0.945802
 H         4.047857         0.859189         1.778690
 H         5.052720        -1.100008         0.168910
 H         1.249562        -1.972743        -0.789084
 H         1.698199        -1.743604         0.947993
