19
Iteration:   262
 C         0.046309         0.436668        -0.148316
 C         1.564018         0.119340        -0.137480
 C         2.402566         1.245281         0.368868
 C         3.680581         0.584789         0.584793
 C         3.288954        -0.725611         1.131500
 O         1.898233        -0.845319         0.911956
 C         4.023415        -0.652431        -0.111608
 O         3.383612        -1.071973        -1.262304
 C         2.212730        -0.401289        -1.504153
 H        -0.215025         0.874075        -1.128171
 H        -0.577119        -0.466462         0.116025
 H        -0.152894         1.263589         0.585598
 H         2.295259         2.099637        -0.373734
 H         1.998473         1.653134         1.347245
 H         4.437245         1.254405         0.925352
 H         3.622133        -1.218783         1.989318
 H         5.071020        -1.044033        -0.158117
 H         2.362305         0.465770        -2.192253
 H         1.444665        -1.156340        -1.868617
