19
Iteration:  2746
 C         0.042166         0.282829        -0.294797
 C         1.545303         0.086098        -0.122931
 C         2.410975         0.669202        -1.260050
 C         3.765445         0.693645        -0.530640
 C         3.483894         0.451127         0.960521
 O         2.099579         0.497900         1.209320
 C         4.046974        -0.696383         0.175715
 O         3.229485        -1.767975        -0.401271
 C         1.885103        -1.435623        -0.078792
 H        -0.461910         0.969312         0.363863
 H        -0.260412         0.724278        -1.202298
 H        -0.480345        -0.727183        -0.360948
 H         2.358438        -0.148439        -2.071786
 H         2.156916         1.658444        -1.614990
 H         4.657785         1.217291        -0.736581
 H         4.084909         0.951276         1.687956
 H         5.098742        -0.876760         0.370690
 H         1.202328        -1.921321        -0.721081
 H         1.641386        -1.771838         1.043089
