19
Iteration:  1532charge 0 multiplicity 1
 C        -0.004013         0.457696        -0.404952
 C         1.534893        -0.045531        -0.077825
 C         2.494364         1.022559        -0.620168
 C         3.931856         0.794865         0.146042
 C         3.354539        -0.133242         1.230486
 O         1.946249        -0.032512         1.361580
 C         4.025572        -0.663433        -0.029510
 O         3.314805        -1.276773        -1.090709
 C         1.897864        -1.367111        -0.747758
 H        -0.464248         0.432991         0.566858
 H         0.002501         1.390143        -0.952544
 H        -0.472921        -0.310107        -1.039512
 H         2.656599         0.997923        -1.620563
 H         2.139644         1.964845        -0.195840
 H         4.808302         1.441601         0.217262
 H         3.766705        -0.339851         2.185034
 H         5.037884        -1.091770         0.204245
 H         1.246131        -1.705714        -1.717699
 H         1.698849        -2.260245        -0.075636
