19
Iteration:  1668charge 0 multiplicity 1
 C         0.094965         0.251425        -0.166509
 C         1.588232         0.077889        -0.207208
 C         2.469223         1.336833        -0.588397
 C         3.854244         0.754562        -0.090093
 C         3.393951        -0.001704         1.183176
 O         1.979067        -0.095577         1.204543
 C         3.944797        -0.726777         0.037113
 O         3.261998        -1.670113        -0.649875
 C         1.942918        -1.166819        -0.992636
 H        -0.532551        -0.548115        -0.694140
 H        -0.380159         0.390077         0.781635
 H        -0.181168         1.147377        -0.679435
 H         2.327012         1.552918        -1.728732
 H         2.124617         2.142478         0.046060
 H         4.665724         1.406716        -0.195911
 H         3.757970         0.054673         2.163697
 H         5.027760        -1.025887         0.149370
 H         2.097939        -0.890439        -2.139584
 H         1.194999        -1.941999        -0.812688
