19
Iteration:  3327
 C         0.065158         0.332249        -0.246667
 C         1.507740         0.024715        -0.122429
 C         2.411979         0.238770        -1.422554
 C         3.792988         0.518760        -0.852086
 C         3.499595         0.604546         0.723015
 O         2.121022         0.786158         0.976102
 C         4.059065        -0.617128         0.155258
 O         3.215719        -1.739643         0.063760
 C         1.821774        -1.397337         0.314258
 H        -0.160615        -0.282699        -1.059659
 H        -0.447589         0.109643         0.752426
 H        -0.224636         1.293639        -0.510061
 H         2.345332        -0.810080        -1.964466
 H         2.205197         1.028033        -2.064045
 H         4.533567         1.245997        -1.232927
 H         4.054306         1.360066         1.139431
 H         5.056959        -1.109847         0.302632
 H         1.247735        -2.212359        -0.178478
 H         1.522649        -1.445869         1.471001
