19
Iteration:  2495charge 0 multiplicity 1
 C         0.033029         0.289161        -0.241764
 C         1.557709        -0.008779        -0.088241
 C         2.474483         0.871724        -1.103626
 C         3.847235         0.712318        -0.392968
 C         3.419847         0.417741         1.037796
 O         2.053018         0.385520         1.175297
 C         4.040189        -0.724423         0.129969
 O         3.255389        -1.748403        -0.485568
 C         1.843865        -1.458523        -0.336150
 H        -0.092556         1.354956        -0.042506
 H        -0.321957         0.124216        -1.238574
 H        -0.613368        -0.331531         0.473599
 H         2.445464         0.429762        -2.074214
 H         2.223893         2.017053        -1.180223
 H         4.646451         1.416593        -0.659992
 H         3.991420         0.732458         1.936143
 H         5.042648        -1.056254         0.342872
 H         1.185155        -1.751344        -1.268799
 H         1.383684        -1.963498         0.488963
