19
Iteration:  1376
 C         0.078310         0.394780        -0.224339
 C         1.586420         0.058073        -0.070760
 C         2.496715         1.148844        -0.614467
 C         3.812984         0.793943         0.123824
 C         3.310784        -0.137056         1.203555
 O         1.868565        -0.229505         1.286439
 C         4.079588        -0.729194        -0.007163
 O         3.341384        -1.385615        -1.030235
 C         1.961633        -1.156040        -0.846457
 H        -0.155886         1.041085        -1.110479
 H        -0.381482        -0.493252        -0.500712
 H        -0.336615         0.967362         0.565921
 H         2.597899         1.015212        -1.658131
 H         2.030304         2.196308        -0.439472
 H         4.622357         1.576493         0.062469
 H         3.752268        -0.176491         2.214288
 H         5.070382        -1.064071         0.165531
 H         1.435926        -1.269066        -1.837043
 H         1.506854        -2.083872        -0.466813
