19
Iteration:   452charge 0 multiplicity 1
 C         0.120804         0.309554        -0.107511
 C         1.613511         0.176094        -0.175194
 C         2.456535         1.396424         0.170281
 C         3.732980         0.664044         0.461409
 C         3.239514        -0.591882         1.236359
 O         1.860572        -0.764888         0.935749
 C         3.988789        -0.718953        -0.021587
 O         3.332655        -1.217126        -1.205253
 C         2.118995        -0.506664        -1.468039
 H        -0.403199         1.220271        -0.460525
 H        -0.179941        -0.574706        -0.622274
 H        -0.053965         0.138711         1.030800
 H         2.636288         2.047165        -0.659766
 H         2.090648         2.054704         1.033881
 H         4.625940         1.233276         0.728816
 H         3.525498        -0.902597         2.190609
 H         5.113812        -0.982901         0.025499
 H         2.389246         0.193265        -2.321351
 H         1.322166        -1.127030        -1.939062
