19
Iteration:   516
 C         0.182299         0.383154        -0.180699
 C         1.624246         0.115168        -0.131443
 C         2.444856         1.352876         0.166177
 C         3.722990         0.690916         0.480207
 C         3.233614        -0.581951         1.170857
 O         1.831534        -0.708853         1.027917
 C         4.058629        -0.736480        -0.077320
 O         3.412634        -1.077750        -1.295288
 C         2.010360        -0.724150        -1.339605
 H        -0.153408         1.048299         0.603669
 H         0.001416         1.031434        -0.996532
 H        -0.532055        -0.513240        -0.401684
 H         2.462875         1.969102        -0.746716
 H         2.005707         2.050406         1.013805
 H         4.471124         1.257089         1.011000
 H         3.676572        -0.918104         2.051265
 H         5.076684        -1.241253         0.025282
 H         1.783979        -0.100679        -2.145418
 H         1.395095        -1.654953        -1.352032
