19
Iteration:  1205charge 0 multiplicity 1
 C         0.091687         0.373459        -0.184023
 C         1.592578         0.115085        -0.152583
 C         2.479387         1.321862        -0.461607
 C         3.806387         0.789257         0.197005
 C         3.331524        -0.218839         1.268238
 O         1.872355        -0.357825         1.177029
 C         4.060645        -0.719526         0.005103
 O         3.342263        -1.448707        -0.989611
 C         1.924190        -1.069751        -1.076107
 H        -0.062082         0.829163         0.764705
 H        -0.289928         0.939265        -1.040194
 H        -0.390039        -0.605056        -0.009466
 H         2.707838         1.368046        -1.548309
 H         1.988861         2.165244         0.033941
 H         4.768848         1.349167         0.283539
 H         3.671608        -0.283160         2.260048
 H         5.047430        -1.033233         0.026560
 H         1.805986        -0.571363        -2.105522
 H         1.296465        -2.010084        -0.957203
