19
Iteration:  3473
 C         0.056425         0.325416        -0.135811
 C         1.483627         0.037124        -0.237512
 C         2.334586         0.346905        -1.410212
 C         3.768349         0.352966        -0.908724
 C         3.549153         0.676448         0.536255
 O         2.112926         0.879471         0.774585
 C         4.100612        -0.655768         0.231092
 O         3.286757        -1.818580         0.435765
 C         1.781337        -1.462254         0.250143
 H        -0.205297         0.150063         0.946272
 H        -0.041029         1.346157        -0.310968
 H        -0.564780        -0.229964        -0.824611
 H         2.323974        -0.289029        -2.331072
 H         2.119049         1.405941        -1.613496
 H         4.447006         0.846294        -1.634852
 H         4.110108         1.480104         1.080525
 H         5.152976        -0.831177         0.413243
 H         1.375094        -2.171570        -0.469898
 H         1.420122        -1.760678         1.358497
