19
Iteration:  1007charge 0 multiplicity 1
 C         0.022327         0.346502        -0.160099
 C         1.528550         0.120300        -0.165894
 C         2.496211         1.332094        -0.236051
 C         3.807640         0.770278         0.280071
 C         3.321562        -0.363166         1.176764
 O         1.940787        -0.391611         1.159073
 C         4.070697        -0.694450        -0.004538
 O         3.374167        -1.414742        -1.052874
 C         1.925305        -0.950042        -1.221844
 H        -0.344521         0.344111         0.856023
 H        -0.225588         1.280742        -0.548477
 H        -0.449571        -0.435646        -0.771391
 H         2.707404         1.759586        -1.211397
 H         2.095813         2.234514         0.280199
 H         4.507838         1.483128         0.690162
 H         3.737317        -0.679453         2.153889
 H         5.110304        -1.124348         0.202339
 H         1.941064        -0.552225        -2.249476
 H         1.231950        -1.807402        -1.267064
