19
Iteration:   430charge 0 multiplicity 1
 C        -0.057863         0.312442        -0.148222
 C         1.586661         0.139525        -0.150032
 C         2.488854         1.372510         0.157753
 C         3.818538         0.645657         0.587216
 C         3.259759        -0.665308         1.180751
 O         1.850566        -0.649146         1.040142
 C         4.065202        -0.719798        -0.094028
 O         3.414602        -1.138752        -1.314770
 C         2.105227        -0.589974        -1.416999
 H        -0.316555         0.777380        -1.114654
 H        -0.489450        -0.649528        -0.093574
 H        -0.394438         1.114904         0.590595
 H         2.463328         2.083536        -0.635224
 H         2.031800         1.855686         1.060528
 H         4.589226         1.241059         1.128442
 H         3.541880        -1.030859         2.140916
 H         5.079548        -1.247460        -0.120415
 H         2.099308         0.160704        -2.280070
 H         1.376473        -1.303374        -1.835490
