19
Iteration:   602
 C         0.050743         0.482931        -0.120492
 C         1.562876         0.078646        -0.155408
 C         2.482127         1.312825        -0.025991
 C         3.724237         0.667480         0.597735
 C         3.263381        -0.573305         1.219341
 O         1.843027        -0.619661         1.061151
 C         4.074297        -0.666641        -0.066299
 O         3.474768        -1.099871        -1.324368
 C         1.987084        -0.857731        -1.357068
 H        -0.575002        -0.394279        -0.301953
 H        -0.147535         0.895283         0.817274
 H         0.008025         1.327703        -0.922196
 H         2.612392         1.810744        -0.976114
 H         1.950011         1.986178         0.677592
 H         4.505906         1.209915         1.106197
 H         3.668005        -0.962480         2.108090
 H         5.169482        -0.971249        -0.005280
 H         1.744729        -0.451896        -2.395677
 H         1.659143        -1.927153        -1.154634
