19
Iteration:  4544charge 0 multiplicity 1
 C         0.157097         0.330255        -0.238736
 C         1.597938        -0.030171        -0.115184
 C         2.307780        -0.267729        -1.520747
 C         3.687143         0.206439        -1.084528
 C         3.538466         0.867580         0.297253
 O         2.183005         1.052591         0.602838
 C         4.047801        -0.609092         0.164873
 O         3.144363        -1.652077         0.580814
 C         1.838339        -1.205945         0.837506
 H         0.024318         1.398218        -0.446618
 H        -0.348294        -0.397270        -0.991488
 H        -0.316510         0.049518         0.690253
 H         2.283388        -1.367909        -1.708678
 H         1.828237         0.205659        -2.346074
 H         4.308439         0.563194        -1.852851
 H         4.212179         1.772035         0.490987
 H         5.032506        -0.852151         0.500306
 H         1.208624        -2.122949         0.736223
 H         1.854969        -0.766808         1.784174
