19
Iteration:  1264
 C         0.087508         0.324020        -0.190442
 C         1.619327         0.143192        -0.166617
 C         2.387224         1.415230        -0.379816
 C         3.750597         0.743497         0.018592
 C         3.364263        -0.121586         1.203951
 O         1.978903        -0.343095         1.131277
 C         4.014126        -0.715663        -0.015060
 O         3.256358        -1.659533        -0.725262
 C         2.058835        -1.003136        -1.157139
 H        -0.384767        -0.537038         0.380840
 H        -0.196370         1.213765         0.424503
 H        -0.317364         0.446172        -1.193278
 H         2.431700         1.900926        -1.353015
 H         1.930819         2.279116         0.305889
 H         4.638931         1.286802         0.235812
 H         3.839814        -0.246778         2.213722
 H         5.112977        -1.057750        -0.002529
 H         2.043443        -0.592315        -2.277558
 H         1.171934        -1.744007        -1.129182
