19
Iteration:  2111
 C         0.071237         0.370823        -0.304098
 C         1.515378        -0.004003        -0.184567
 C         2.493970         0.987585        -0.860426
 C         3.829142         0.765061        -0.132771
 C         3.408959         0.163399         1.169174
 O         1.991249         0.139653         1.302316
 C         3.990929        -0.709642         0.046340
 O         3.261211        -1.515761        -0.799091
 C         1.923705        -1.455139        -0.530879
 H        -0.491263         0.277235         0.695510
 H         0.001718         1.457009        -0.491037
 H        -0.494628        -0.219993        -0.993016
 H         2.628737         0.816903        -1.860055
 H         2.216347         2.074160        -0.769933
 H         4.608996         1.501612        -0.369591
 H         3.954994         0.118461         2.085909
 H         4.952882        -1.106346         0.217758
 H         1.467655        -1.719403        -1.484912
 H         1.731347        -2.242075         0.350614
