19
Iteration:   476
 C        -0.004990         0.376361        -0.116203
 C         1.520063         0.082079        -0.114210
 C         2.437301         1.385318         0.070662
 C         3.725953         0.692853         0.586757
 C         3.328844        -0.581844         1.142584
 O         1.924607        -0.799013         0.911969
 C         4.108746        -0.668596        -0.099670
 O         3.278269        -1.287381        -1.069830
 C         2.142974        -0.456598        -1.467528
 H        -0.114452         1.475037         0.088325
 H        -0.418254         0.053759        -1.120965
 H        -0.423199        -0.092406         0.723358
 H         2.681343         1.920907        -0.829798
 H         2.120606         2.104470         0.791968
 H         4.484133         1.239001         1.074744
 H         3.637374        -1.084019         2.037304
 H         5.169364        -0.965227        -0.059022
 H         2.482589         0.199794        -2.349217
 H         1.439632        -1.097292        -2.010136
