19
Iteration:  1980
 C         0.150583         0.329432        -0.261162
 C         1.629495         0.059234        -0.134958
 C         2.429514         1.183243        -0.838486
 C         3.775768         0.830454        -0.207903
 C         3.400933         0.084362         1.197679
 O         2.024087        -0.083365         1.304391
 C         4.032290        -0.654859         0.072740
 O         3.237085        -1.664496        -0.640845
 C         1.828200        -1.299633        -0.785824
 H        -0.180277         0.172262        -1.314584
 H        -0.365435        -0.314321         0.478156
 H        -0.098217         1.369940        -0.034079
 H         2.387647         1.044413        -1.879608
 H         2.112073         2.221557        -0.382134
 H         4.591870         1.579316        -0.257861
 H         3.983041         0.149351         2.198908
 H         5.072716        -0.986143         0.192151
 H         1.539207        -1.197607        -1.856927
 H         1.235417        -2.115284        -0.392861
