19
Iteration:   388charge 0 multiplicity 1
 C         0.117661         0.471354        -0.245514
 C         1.542300         0.056979        -0.110038
 C         2.553944         1.323586         0.067506
 C         3.780803         0.644074         0.683128
 C         3.242081        -0.703220         1.221562
 O         1.849863        -0.831758         1.031387
 C         4.016369        -0.684144        -0.051430
 O         3.410937        -0.743204        -1.431635
 C         1.983239        -0.827765        -1.283600
 H        -0.572977        -0.108787        -0.887474
 H        -0.311672         0.519882         0.770992
 H         0.126560         1.427269        -0.681920
 H         2.835886         1.752300        -0.866496
 H         2.072864         2.002383         0.682972
 H         4.610134         1.152876         1.204513
 H         3.527401        -1.162113         2.138472
 H         5.058142        -1.140655        -0.132321
 H         1.415095        -0.409284        -2.171729
 H         1.646294        -1.859531        -1.190202
