19
Iteration:  4340
 C        -0.031979         0.284422        -0.254069
 C         1.568550         0.009047         0.000585
 C         2.261363        -0.084149        -1.419638
 C         3.759136         0.156428        -1.000934
 C         3.546096         0.861263         0.372611
 O         2.218361         1.205013         0.492209
 C         4.027992        -0.635360         0.192135
 O         3.225591        -1.756538         0.467864
 C         1.928323        -1.400958         0.747198
 H        -0.876503        -0.295877         0.438746
 H        -0.144127         1.388149        -0.068144
 H        -0.276293         0.146174        -1.345655
 H         2.275426        -0.908867        -2.096973
 H         1.931478         0.865935        -1.930964
 H         4.359570         0.614384        -1.760266
 H         4.234757         1.510576         0.938577
 H         5.076687        -0.757506         0.535003
 H         1.194141        -2.165308         0.262271
 H         1.833506        -1.478156         1.888132
