19
Iteration:   669
 C         0.032716         0.212101        -0.162272
 C         1.540396         0.217467        -0.171690
 C         2.405777         1.432314         0.030839
 C         3.828335         0.728330         0.396802
 C         3.337356        -0.518435         1.179071
 O         1.884302        -0.572003         1.102087
 C         4.001951        -0.746050        -0.104219
 O         3.278882        -1.439071        -1.050023
 C         2.165932        -0.531714        -1.436991
 H        -0.233867         0.697727        -1.152703
 H        -0.308412        -0.814734        -0.140578
 H        -0.350936         0.814407         0.758873
 H         2.479971         2.056032        -0.831467
 H         2.109412         2.011341         0.948456
 H         4.622427         1.315508         0.843222
 H         3.751076        -1.001993         2.135409
 H         5.020527        -1.087104        -0.108437
 H         2.630088         0.183072        -2.235976
 H         1.330496        -1.192097        -1.974977
