19
Iteration:  4935
 C         0.070665         0.363863        -0.280841
 C         1.529453         0.004423         0.032681
 C         2.201714        -0.254487        -1.415094
 C         3.704255         0.170781        -1.098609
 C         3.577945         0.807710         0.257009
 O         2.203717         1.212031         0.560123
 C         4.057200        -0.623304         0.151958
 O         3.258506        -1.700232         0.591552
 C         1.882549        -1.301765         0.761700
 H         0.025708         1.266823        -0.758990
 H        -0.329634        -0.320528        -1.134326
 H        -0.558236         0.242717         0.565274
 H         2.182474        -1.342076        -1.677376
 H         1.888802         0.371740        -2.213669
 H         4.463331         0.363209        -1.902442
 H         4.162144         1.606919         0.769277
 H         5.011476        -0.694073         0.679650
 H         1.225503        -2.145798         0.406109
 H         1.672437        -1.154880         1.815615
