19
Iteration:  3576
 C         0.031649         0.306978        -0.141840
 C         1.560372        -0.049894        -0.159653
 C         2.309444         0.160347        -1.468785
 C         3.740784         0.389425        -0.913513
 C         3.590198         0.737990         0.509559
 O         2.193167         0.899123         0.762201
 C         4.106945        -0.603043         0.217495
 O         3.235704        -1.740310         0.352849
 C         1.736991        -1.412701         0.408935
 H        -0.495508        -0.130129        -0.956906
 H        -0.516805         0.141676         0.871447
 H        -0.023089         1.378065        -0.277282
 H         2.438574        -0.662047        -2.164064
 H         1.968733         1.063503        -2.096640
 H         4.505578         0.788551        -1.550560
 H         4.099054         1.490421         1.189624
 H         5.107180        -0.897227         0.405492
 H         1.311903        -2.128410        -0.295243
 H         1.250987        -1.559481         1.487561
