19
Iteration:  2816
 C         0.017238         0.278228        -0.168210
 C         1.538737        -0.003517        -0.109595
 C         2.387374         0.653521        -1.269133
 C         3.793946         0.592910        -0.654017
 C         3.499405         0.582669         0.905469
 O         2.137728         0.436968         1.119014
 C         4.077949        -0.676044         0.113017
 O         3.183668        -1.745082         0.063283
 C         1.851496        -1.388762        -0.365821
 H        -0.610863        -0.560763         0.128327
 H        -0.220135         1.032321         0.641473
 H        -0.198751         0.649690        -1.140408
 H         2.328492         0.120959        -2.110307
 H         2.168638         1.766707        -1.472912
 H         4.659412         1.214480        -1.032465
 H         4.130812         1.194951         1.575770
 H         5.152475        -0.980786         0.248499
 H         1.757795        -1.562741        -1.439698
 H         1.115098        -2.054245         0.153544
