19
Iteration:  1081charge 0 multiplicity 1
 C         0.070474         0.389425        -0.093530
 C         1.558766         0.112781        -0.179824
 C         2.473150         1.341797        -0.326538
 C         3.714275         0.809199         0.221329
 C         3.346696        -0.280601         1.219809
 O         1.944335        -0.468148         1.087647
 C         4.014358        -0.686423        -0.017999
 O         3.301138        -1.543873        -0.857631
 C         2.048436        -0.902039        -1.288144
 H        -0.465874        -0.516555        -0.584698
 H        -0.236190         0.374060         0.970657
 H        -0.261163         1.305237        -0.615756
 H         2.594268         1.810495        -1.371681
 H         2.329735         2.154856         0.422590
 H         4.532880         1.528673         0.234060
 H         3.740985        -0.290963         2.263008
 H         5.097517        -1.073411         0.082598
 H         2.185651        -0.414635        -2.248337
 H         1.255252        -1.762909        -1.394537
