19
Iteration:  1936charge 0 multiplicity 1
 C         0.037127         0.457145        -0.181682
 C         1.496989        -0.011271        -0.169900
 C         2.545683         0.989243        -0.832422
 C         3.833064         0.823490         0.000611
 C         3.329279        -0.004952         1.173018
 O         1.947738         0.144742         1.266571
 C         4.036421        -0.719256         0.076333
 O         3.365979        -1.452229        -0.984590
 C         1.895724        -1.502983        -0.635939
 H        -0.619230        -0.316033        -0.531573
 H        -0.169451         0.594501         0.897800
 H        -0.324786         1.335846        -0.730899
 H         2.669345         0.866107        -1.880387
 H         2.115308         2.088520        -0.622490
 H         4.596834         1.586858         0.055466
 H         3.803223         0.000026         2.202264
 H         5.067605        -1.127528         0.303789
 H         1.499996        -1.887764        -1.589484
 H         1.669000        -2.239489         0.080742
