19
Iteration:  3202
 C         0.025471         0.409471        -0.216213
 C         1.525708         0.054997        -0.201822
 C         2.293986         0.550369        -1.420681
 C         3.657273         0.458239        -0.853849
 C         3.506507         0.628036         0.678504
 O         2.116585         0.673522         0.988534
 C         4.095027        -0.716083         0.235928
 O         3.344849        -1.823868         0.327443
 C         1.905667        -1.538362         0.053347
 H        -0.083654         1.272620         0.479951
 H        -0.201548         0.736922        -1.182835
 H        -0.552791        -0.524528         0.058866
 H         2.236487         0.181075        -2.372655
 H         1.916068         1.638008        -1.551341
 H         4.516540         0.840397        -1.348836
 H         4.054160         1.345023         1.247781
 H         5.166803        -0.997232         0.294386
 H         1.574913        -2.014835        -0.944839
 H         1.298094        -1.869290         0.852504
