19
Iteration:  4410charge 0 multiplicity 1
 C         0.069237         0.382695        -0.174007
 C         1.519798        -0.063093        -0.125152
 C         2.233368        -0.032786        -1.483875
 C         3.659330         0.159871        -1.057427
 C         3.583960         0.887065         0.269929
 O         2.225186         0.972541         0.575740
 C         4.045005        -0.610396         0.200109
 O         3.253918        -1.615868         0.821719
 C         1.909400        -1.425845         0.536572
 H        -0.655786        -0.460168        -0.065579
 H        -0.109628         1.131145         0.683485
 H        -0.138816         0.880677        -1.254897
 H         1.904317        -0.917630        -2.088296
 H         1.967596         0.864200        -2.028959
 H         4.457849         0.376982        -1.860240
 H         4.175554         1.732992         0.567698
 H         5.123643        -0.820232         0.364920
 H         1.522532        -2.224014        -0.160665
 H         1.272677        -1.460089         1.381761
