19
Iteration:  1189charge 0 multiplicity 1
 C         0.039417         0.379099        -0.205508
 C         1.564534         0.091332        -0.155045
 C         2.550653         1.287294        -0.385966
 C         3.800132         0.781167         0.238354
 C         3.293823        -0.287574         1.188782
 O         1.917161        -0.284156         1.211837
 C         4.016997        -0.689212        -0.030996
 O         3.368811        -1.377346        -1.072881
 C         1.957180        -1.148871        -1.024239
 H        -0.209090         1.434191         0.158314
 H        -0.166538         0.513401        -1.297991
 H        -0.582767        -0.469738         0.108541
 H         2.498418         1.625267        -1.401416
 H         2.302551         2.217511         0.182657
 H         4.516659         1.538062         0.507735
 H         3.787184        -0.511125         2.186185
 H         5.047253        -1.201795         0.090011
 H         1.508038        -1.268585        -1.965060
 H         1.469232        -1.906532        -0.441400
