19
Iteration:  1916
 C         0.145349         0.325537        -0.145365
 C         1.605597         0.042390        -0.125888
 C         2.551637         1.063395        -0.803354
 C         3.799996         0.711119        -0.077174
 C         3.260652         0.077634         1.217843
 O         1.873149         0.065017         1.245458
 C         3.996414        -0.737624         0.057305
 O         3.326433        -1.483603        -0.978099
 C         1.960098        -1.318617        -0.636924
 H        -0.560217        -0.522663        -0.195015
 H        -0.094379         0.983728         0.658305
 H        -0.106250         0.822413        -1.041522
 H         2.514039         0.921330        -1.872054
 H         2.254208         2.158035        -0.775864
 H         4.663800         1.388085        -0.188211
 H         3.712185         0.062982         2.289529
 H         4.991556        -1.183139         0.229920
 H         1.246137        -1.565819        -1.539946
 H         1.765200        -1.978315         0.179827
