19
Iteration:  3297charge 0 multiplicity 1
 C         0.062134         0.411273        -0.264314
 C         1.494418        -0.089789        -0.147766
 C         2.330562         0.402034        -1.285422
 C         3.762709         0.513228        -0.824192
 C         3.534876         0.742387         0.672134
 O         2.154239         0.785769         0.855722
 C         3.992784        -0.657570         0.249092
 O         3.275448        -1.832979         0.151720
 C         1.859108        -1.580217         0.235649
 H        -0.550652        -0.556032        -0.381741
 H        -0.081562         0.958948         0.697033
 H         0.009613         1.063789        -1.105443
 H         2.167787        -0.244452        -2.262281
 H         2.007741         1.380429        -1.637177
 H         4.576181         0.849096        -1.451212
 H         4.064662         1.529262         1.134066
 H         5.088901        -0.831417         0.224118
 H         1.385485        -2.232668        -0.378636
 H         1.439645        -1.690904         1.302369
