19
Iteration:  3452charge 0 multiplicity 1
 C        -0.026129         0.450629        -0.177580
 C         1.526912        -0.013824        -0.158060
 C         2.319698         0.365812        -1.524917
 C         3.737981         0.336359        -0.879292
 C         3.550744         0.737586         0.569812
 O         2.183498         0.783404         0.857655
 C         4.021800        -0.621349         0.156204
 O         3.263375        -1.765604         0.492112
 C         1.925647        -1.556261         0.195346
 H        -0.348748         0.955215         0.776785
 H        -0.114190         1.131589        -0.937976
 H        -0.745328        -0.363467        -0.384788
 H         1.995263        -0.448069        -2.175670
 H         1.934431         1.395567        -1.819287
 H         4.581553         0.766877        -1.446512
 H         4.192249         1.384603         1.210277
 H         5.034585        -0.902821         0.382871
 H         1.702081        -2.152477        -0.649843
 H         1.364051        -2.067707         1.157320
