19
Iteration:  4100charge 0 multiplicity 1
 C        -0.050486         0.227733        -0.248613
 C         1.467645         0.012620        -0.078662
 C         2.268462         0.003365        -1.415004
 C         3.724305         0.162898        -1.059200
 C         3.688685         0.818556         0.295874
 O         2.255378         1.119375         0.636441
 C         4.102710        -0.639025         0.173347
 O         3.229338        -1.680610         0.602461
 C         1.835995        -1.325986         0.665024
 H        -0.633481        -0.576674         0.248781
 H        -0.383151         1.233806        -0.040601
 H        -0.206682         0.062646        -1.241479
 H         2.054070        -0.912172        -1.938183
 H         1.843452         0.840167        -2.073420
 H         4.264112         0.439606        -1.978896
 H         4.460332         1.432065         0.791791
 H         5.122092        -0.943998         0.296053
 H         1.252108        -2.220947         0.240062
 H         1.452835        -1.108652         1.766503
