19
Iteration:   116
 C         0.112492         0.438919        -0.103467
 C         1.574919         0.116113        -0.154831
 C         2.473167         1.212678         0.323695
 C         3.728429         0.494381         0.741736
 C         3.189929        -0.898925         1.086382
 O         1.769176        -0.939141         0.913679
 C         4.024083        -0.695830        -0.094816
 O         3.515020        -0.652752        -1.378963
 C         2.136797        -0.402117        -1.513757
 H        -0.190555         1.276955        -0.828368
 H        -0.452644        -0.467041        -0.325433
 H        -0.144716         0.767992         0.902044
 H         2.467454         2.102498        -0.415765
 H         1.935961         1.538703         1.247001
 H         4.447072         0.928176         1.383182
 H         3.471034        -1.400975         1.982957
 H         4.987314        -1.077264        -0.109191
 H         1.948814         0.326367        -2.298165
 H         1.525876        -1.365894        -1.678751
