19
Iteration:  4642charge 0 multiplicity 1
 C         0.021909         0.323982        -0.107517
 C         1.479217        -0.089929        -0.219602
 C         2.236692        -0.094822        -1.541139
 C         3.707367         0.043011        -1.167429
 C         3.643405         0.870625         0.123525
 O         2.249224         0.872439         0.601251
 C         4.146122        -0.597761         0.150739
 O         3.175776        -1.362603         0.995621
 C         1.820712        -1.321649         0.602808
 H         0.140252         0.526329         0.934879
 H        -0.202692         1.239385        -0.820883
 H        -0.798124        -0.379540        -0.231616
 H         2.154465        -1.031342        -2.125834
 H         2.074486         0.697116        -2.186799
 H         4.520030         0.150443        -1.866119
 H         4.127169         1.841040         0.383805
 H         5.120918        -0.738137         0.601348
 H         1.584028        -2.313736        -0.027633
 H         1.237272        -1.364006         1.582641
