19
Iteration:  4108charge 0 multiplicity 1
 C        -0.060501         0.122431        -0.245105
 C         1.502962         0.082833        -0.081324
 C         2.266654        -0.061847        -1.410501
 C         3.727549         0.134425        -1.085667
 C         3.663842         0.852051         0.361171
 O         2.269753         1.159082         0.684207
 C         4.095984        -0.681968         0.156951
 O         3.159361        -1.691507         0.541050
 C         1.889656        -1.229218         0.616762
 H        -0.646201        -0.563339         0.391807
 H        -0.266940         1.231114         0.169401
 H        -0.366096         0.066489        -1.350612
 H         2.054409        -1.137781        -1.722374
 H         1.982313         0.658041        -2.182063
 H         4.466617         0.421474        -1.772837
 H         4.316513         1.701885         0.815453
 H         5.089702        -0.993900         0.304169
 H         1.283391        -2.133085         0.276444
 H         1.612704        -0.968385         1.601841
