19
Iteration:  4300
 C         0.103084         0.317347        -0.187794
 C         1.530314        -0.044527        -0.176891
 C         2.330588        -0.100375        -1.590185
 C         3.661908         0.247328        -1.071821
 C         3.585110         0.814322         0.336255
 O         2.232621         0.919638         0.784468
 C         4.004047        -0.563167         0.181458
 O         3.198177        -1.629038         0.575244
 C         1.836369        -1.245192         0.668495
 H        -0.248154         0.476816         0.774648
 H        -0.102935         1.145674        -0.780234
 H        -0.413865        -0.547956        -0.745119
 H         2.211078        -1.129976        -1.978440
 H         1.984658         0.634818        -2.338530
 H         4.463117         0.582217        -1.673704
 H         4.304359         1.554554         0.836063
 H         5.005765        -0.862630         0.330488
 H         1.359421        -2.107351         0.150127
 H         1.350029        -1.121435         1.642130
