19
Iteration:  1538charge 0 multiplicity 1
 C         0.051216         0.416130        -0.365261
 C         1.481194        -0.011902        -0.089769
 C         2.530219         1.008920        -0.646208
 C         3.922458         0.801988         0.159033
 C         3.355770        -0.137606         1.251107
 O         1.955455        -0.042683         1.346080
 C         4.013370        -0.684777        -0.011874
 O         3.296562        -1.246360        -1.115152
 C         1.899207        -1.372312        -0.751644
 H        -0.739876         0.489318         0.512286
 H         0.121006         1.385059        -0.878383
 H        -0.416505        -0.325844        -1.030088
 H         2.773122         0.938981        -1.781947
 H         2.083175         2.011005        -0.357166
 H         4.701971         1.561886         0.190323
 H         3.818680        -0.370932         2.228531
 H         4.972802        -1.141229         0.307109
 H         1.306502        -1.621302        -1.557185
 H         1.723241        -2.187903        -0.012561
