19
Iteration:   261charge 0 multiplicity 1
 C         0.039829         0.437898        -0.150106
 C         1.569003         0.121295        -0.143314
 C         2.405056         1.238422         0.371856
 C         3.681354         0.589127         0.587257
 C         3.288189        -0.724747         1.139000
 O         1.902390        -0.850897         0.912635
 C         4.024514        -0.652745        -0.110256
 O         3.376369        -1.066978        -1.264651
 C         2.210569        -0.400591        -1.509690
 H        -0.248656         0.861287        -1.161251
 H        -0.578300        -0.456064         0.175719
 H        -0.103152         1.247592         0.546528
 H         2.301799         2.113699        -0.401983
 H         1.985470         1.655116         1.344201
 H         4.458608         1.259093         0.946078
 H         3.611116        -1.216596         2.015719
 H         5.086730        -1.055382        -0.170301
 H         2.377653         0.448021        -2.186726
 H         1.444467        -1.145291        -1.852498
