19
Iteration:  1870charge 0 multiplicity 1
 C         0.090610         0.319511        -0.290128
 C         1.579126         0.088029        -0.106349
 C         2.445613         1.172887        -0.690582
 C         3.815820         0.836542        -0.106923
 C         3.486297         0.042755         1.168317
 O         2.001584        -0.117424         1.217741
 C         4.044810        -0.629772        -0.003393
 O         3.227879        -1.697671        -0.597240
 C         1.840712        -1.257506        -0.841511
 H        -0.388556         0.098891         0.604744
 H        -0.086562         1.401290        -0.502288
 H        -0.398055        -0.317026        -1.074725
 H         2.414697         1.355273        -1.714004
 H         2.035450         2.219125        -0.316162
 H         4.669996         1.457402        -0.182688
 H         3.871769         0.170833         2.139052
 H         5.126191        -0.957419        -0.029561
 H         1.687501        -0.877055        -1.914802
 H         1.179207        -2.039781        -0.615953
