19
Iteration:  3550charge 0 multiplicity 1
 C         0.116000         0.459392        -0.227772
 C         1.570350        -0.052559        -0.151624
 C         2.321625         0.176120        -1.442288
 C         3.761783         0.330968        -0.917270
 C         3.455048         0.806125         0.537169
 O         2.104000         0.875031         0.829290
 C         3.993692        -0.562294         0.174672
 O         3.271607        -1.838797         0.188607
 C         1.874677        -1.506923         0.566465
 H        -0.590389        -0.360406        -0.510535
 H        -0.126285         0.859067         0.675846
 H        -0.009051         1.299591        -0.987773
 H         2.359275        -0.610538        -2.210992
 H         2.047299         1.159991        -1.923116
 H         4.578988         0.661057        -1.591789
 H         3.911492         1.405711         1.248336
 H         5.036731        -0.748949         0.580155
 H         1.299404        -2.345695         0.274436
 H         1.784530        -1.339671         1.562449
