19
Iteration:   817
 C         0.060918         0.303900        -0.191084
 C         1.612237         0.149945        -0.115029
 C         2.526122         1.374415        -0.137877
 C         3.783009         0.742502         0.410086
 C         3.304584        -0.503217         1.272691
 O         1.838928        -0.536840         1.129603
 C         4.046981        -0.685829        -0.049093
 O         3.345523        -1.272153        -1.161423
 C         1.998317        -0.819335        -1.309412
 H        -0.435499        -0.670564        -0.245750
 H        -0.257855         0.867917         0.692652
 H        -0.117637         0.831755        -1.135468
 H         2.653534         1.770594        -1.210624
 H         2.137278         2.182260         0.492931
 H         4.608909         1.432403         0.472781
 H         3.582145        -0.849208         2.317410
 H         5.075909        -1.117598        -0.066503
 H         1.966986        -0.203141        -2.232471
 H         1.264661        -1.709820        -1.284003
