19
Iteration:  4297
 C         0.103426         0.318772        -0.183762
 C         1.534568        -0.049203        -0.163970
 C         2.339590        -0.094970        -1.589122
 C         3.661263         0.270227        -1.070908
 C         3.590535         0.805758         0.332418
 O         2.231904         0.920281         0.770878
 C         4.006020        -0.572763         0.185032
 O         3.200474        -1.612498         0.591024
 C         1.804341        -1.250771         0.646167
 H        -0.290466         0.540154         0.929152
 H        -0.171502         1.151018        -0.869182
 H        -0.420826        -0.568987        -0.661948
 H         2.247379        -1.114717        -1.897676
 H         1.978366         0.633869        -2.371890
 H         4.531337         0.503835        -1.676233
 H         4.274217         1.524429         0.768279
 H         5.059888        -0.896590         0.288014
 H         1.396943        -2.168914         0.097954
 H         1.422210        -1.267791         1.619824
