19
Iteration:  3987charge 0 multiplicity 1
 C        -0.044939         0.208984        -0.179681
 C         1.519216         0.023327        -0.211589
 C         2.300377         0.189972        -1.506733
 C         3.753846         0.202575        -1.024799
 C         3.579621         0.716635         0.301216
 O         2.204629         1.020325         0.609176
 C         4.065671        -0.716041         0.141597
 O         3.276820        -1.709617         0.696124
 C         1.835852        -1.277012         0.659980
 H        -0.289536         1.060911         0.390294
 H        -0.358962         0.368234        -1.240392
 H        -0.612206        -0.553692         0.410368
 H         1.874220        -0.621688        -2.240797
 H         2.201710         1.185751        -1.964175
 H         4.564736         0.410537        -1.747565
 H         4.304484         1.380965         0.628550
 H         5.144558        -0.670094         0.504102
 H         1.194356        -2.237927         0.338997
 H         1.583919        -1.096399         1.757770
