19
Iteration:   447charge 0 multiplicity 1
 C         0.115875         0.310039        -0.101244
 C         1.553352         0.176747        -0.133094
 C         2.464232         1.367962         0.192329
 C         3.744036         0.656789         0.480507
 C         3.239603        -0.566870         1.232348
 O         1.861240        -0.723660         0.948751
 C         3.990513        -0.744745        -0.043079
 O         3.374913        -1.210944        -1.220451
 C         2.107036        -0.495583        -1.539417
 H        -0.339312         1.092705        -0.729846
 H        -0.338330        -0.665750        -0.487395
 H        -0.122620         0.223366         0.983134
 H         2.712783         2.136756        -0.620093
 H         2.162856         2.013540         1.072528
 H         4.669907         1.191861         0.736312
 H         3.603641        -1.014114         2.224503
 H         4.993112        -0.968402         0.105983
 H         2.321908         0.161465        -2.360686
 H         1.394179        -1.334515        -1.795164
