19
Iteration:  2411charge 0 multiplicity 1
 C         0.026130         0.346379        -0.210859
 C         1.540508         0.053805        -0.154042
 C         2.416237         0.981998        -1.038496
 C         3.771546         0.726385        -0.364846
 C         3.489941         0.350344         1.034367
 O         2.056779         0.239485         1.168258
 C         4.065095        -0.739614         0.041922
 O         3.232911        -1.835610        -0.163067
 C         1.893607        -1.374518        -0.630370
 H        -0.519891        -0.275884        -0.865344
 H        -0.219856         0.043913         0.821245
 H        -0.234112         1.427432        -0.440802
 H         2.290872         0.918141        -2.083419
 H         2.034360         1.997595        -0.830935
 H         4.556795         1.382676        -0.748084
 H         4.001773         0.861292         1.864490
 H         5.136764        -1.066009        -0.023318
 H         1.989594        -1.271319        -1.639806
 H         1.310061        -2.269202        -0.383609
