19
Iteration:  1200
 C         0.102963         0.378635        -0.204083
 C         1.544969         0.088071        -0.160611
 C         2.484465         1.328485        -0.449199
 C         3.834722         0.785280         0.199980
 C         3.324180        -0.229691         1.257519
 O         1.882252        -0.338760         1.188456
 C         4.038604        -0.712694        -0.028333
 O         3.344868        -1.439530        -1.025367
 C         1.940351        -1.074146        -1.043640
 H        -0.157645         0.999648         0.734810
 H        -0.267634         0.750011        -1.174499
 H        -0.453917        -0.531168         0.080702
 H         2.678099         1.475250        -1.500763
 H         2.051380         2.217504         0.088534
 H         4.710971         1.351638         0.480046
 H         3.652225        -0.428535         2.327366
 H         5.135338        -1.031984         0.120669
 H         1.756033        -0.814099        -2.062065
 H         1.434035        -1.959591        -0.709837
