19
Iteration:  4416charge 0 multiplicity 1
 C         0.115026         0.390932        -0.182468
 C         1.570320        -0.029918        -0.131011
 C         2.151572        -0.071236        -1.514644
 C         3.644011         0.103889        -1.050579
 C         3.558930         0.848949         0.313171
 O         2.218778         1.023450         0.610520
 C         4.043364        -0.570766         0.208154
 O         3.264317        -1.626215         0.835713
 C         1.918543        -1.419575         0.501898
 H        -0.577627        -0.498471        -0.201072
 H        -0.257990         1.058436         0.542457
 H         0.129487         0.890949        -1.089210
 H         1.860422        -0.861003        -2.187888
 H         1.981630         0.963931        -1.943146
 H         4.357956         0.334864        -1.769621
 H         4.190338         1.784899         0.282945
 H         5.093091        -0.759946         0.218965
 H         1.694501        -2.254391        -0.204501
 H         1.203215        -1.660239         1.373804
