19
Iteration:  1797
 C         0.117517         0.273311        -0.153669
 C         1.608384         0.104222        -0.162029
 C         2.535066         1.305348        -0.756456
 C         3.773311         0.796853        -0.070105
 C         3.424460         0.042105         1.257523
 O         2.021342        -0.158860         1.189424
 C         3.939672        -0.710684         0.085636
 O         3.244076        -1.653535        -0.662293
 C         1.851713        -1.179604        -0.963521
 H        -0.289654         1.350323        -0.144950
 H        -0.300095        -0.318039        -1.004992
 H        -0.196589        -0.255069         0.729862
 H         2.493019         1.189609        -1.885719
 H         2.236589         2.284525        -0.579739
 H         4.680900         1.320510        -0.135330
 H         3.693166         0.275433         2.298854
 H         5.034641        -1.048500         0.084510
 H         1.719380        -1.020526        -1.998104
 H         1.099489        -2.013902        -0.775008
