19
Iteration:  4490charge 0 multiplicity 1
 C         0.037874         0.306680        -0.130793
 C         1.565093        -0.047518        -0.116276
 C         2.289830        -0.061395        -1.576303
 C         3.725840         0.100134        -1.113352
 C         3.546612         0.834560         0.276633
 O         2.215009         1.039372         0.551543
 C         3.997437        -0.580958         0.239178
 O         3.268992        -1.663154         0.785577
 C         1.836401        -1.250633         0.610197
 H        -0.308934         0.420817        -1.160087
 H        -0.590113        -0.575850         0.342229
 H        -0.029641         1.168066         0.530331
 H         2.142080        -1.004366        -2.185893
 H         1.882700         0.777772        -2.170909
 H         4.497637         0.193234        -1.836048
 H         4.222664         1.708324         0.590963
 H         5.065295        -0.698619         0.355412
 H         1.348568        -2.136414         0.094554
 H         1.462328        -1.099371         1.660773
