19
Iteration:  4413charge 0 multiplicity 1
 C         0.091268         0.382272        -0.182036
 C         1.547764        -0.042989        -0.129908
 C         2.185323        -0.055182        -1.498984
 C         3.650872         0.132987        -1.048327
 C         3.567709         0.869715         0.298871
 O         2.222852         0.998619         0.592182
 C         4.038823        -0.589142         0.201795
 O         3.254994        -1.624802         0.829590
 C         1.924178        -1.424465         0.516714
 H        -0.554752        -0.410957        -0.136676
 H        -0.212902         1.123202         0.635063
 H         0.034476         0.864977        -1.145243
 H         1.850019        -0.926222        -2.178605
 H         2.000548         0.916260        -1.956294
 H         4.423813         0.362885        -1.840608
 H         4.179486         1.756761         0.383765
 H         5.142354        -0.785321         0.271426
 H         1.637189        -2.205381        -0.133080
 H         1.208422        -1.574758         1.349171
