19
Iteration:  1351charge 0 multiplicity 1
 C         0.012528         0.470377        -0.110104
 C         1.564650        -0.049971        -0.222291
 C         2.592225         1.159548        -0.607095
 C         3.804578         0.781730         0.195389
 C         3.277419        -0.219895         1.262712
 O         1.885830        -0.082210         1.224197
 C         4.059004        -0.713317         0.055786
 O         3.353347        -1.228484        -1.128457
 C         1.958950        -1.402350        -0.910537
 H        -0.520550         0.649174        -1.046861
 H        -0.601566        -0.326051         0.349547
 H         0.039791         1.438432         0.357589
 H         2.880196         0.995341        -1.622028
 H         2.136228         2.085427        -0.460749
 H         4.514766         1.551031         0.379064
 H         3.686486        -0.263028         2.236026
 H         5.066624        -1.056783         0.241414
 H         1.445157        -1.729175        -1.776821
 H         1.711093        -2.329323        -0.302131
