19
Iteration:  4775charge 0 multiplicity 1
 C         0.038204         0.323613        -0.205765
 C         1.559366        -0.053929        -0.112546
 C         2.250258        -0.237491        -1.454114
 C         3.631798        -0.015275        -1.081640
 C         3.554343         0.907090         0.152275
 O         2.254282         1.147278         0.576341
 C         4.059874        -0.573153         0.255181
 O         3.278916        -1.627639         0.700415
 C         1.860082        -1.246971         0.722167
 H        -0.616461         0.208419         0.763159
 H        -0.077861         1.414113        -0.400299
 H        -0.332317        -0.223706        -1.047976
 H         1.887300        -1.168514        -1.895408
 H         2.050912         0.566254        -2.169989
 H         4.380210         0.172726        -1.892156
 H         4.131330         1.845524         0.270613
 H         5.121499        -0.662672         0.584411
 H         1.373662        -2.177155         0.167443
 H         1.531525        -1.150657         1.771677
