19
Iteration:  4387charge 0 multiplicity 1
 C        -0.009641         0.292078        -0.066850
 C         1.494901        -0.050688        -0.204930
 C         2.347403        -0.100935        -1.595871
 C         3.832915         0.203158        -1.108124
 C         3.613941         0.813153         0.347469
 O         2.240583         0.951804         0.648193
 C         4.094976        -0.544173         0.201975
 O         3.191610        -1.552057         0.659980
 C         1.701935        -1.341652         0.646526
 H        -0.594426        -0.655401         0.305270
 H        -0.156172         1.133460         0.626922
 H        -0.475389         0.532104        -1.161077
 H         2.247107        -1.032893        -2.179747
 H         2.024757         0.743248        -2.227532
 H         4.625209         0.512666        -1.810954
 H         4.268192         1.677198         0.571295
 H         5.131281        -0.759265         0.391459
 H         1.281622        -2.303645         0.202916
 H         1.241121        -1.110711         1.593933
