19
Iteration:   933charge 0 multiplicity 1
 C         0.067847         0.384543        -0.248799
 C         1.558629         0.153199        -0.149231
 C         2.578072         1.283843        -0.270676
 C         3.817928         0.666398         0.398408
 C         3.206977        -0.496300         1.229427
 O         1.839397        -0.391069         1.287039
 C         4.040552        -0.711481        -0.092856
 O         3.452829        -1.087755        -1.311551
 C         1.957378        -1.079989        -1.064507
 H        -0.152000         1.493315        -0.352122
 H        -0.533018        -0.219908        -1.147391
 H        -0.522648         0.135412         0.724223
 H         2.474482         1.583684        -1.299043
 H         2.198226         2.241082         0.206434
 H         4.555331         1.251127         0.913570
 H         3.675972        -0.743988         2.210702
 H         5.143653        -1.002620        -0.058176
 H         1.450710        -1.137753        -2.040597
 H         1.725562        -1.991020        -0.537061
