19
Iteration:  1670
 C         0.104005         0.252677        -0.151346
 C         1.588846         0.070379        -0.184273
 C         2.475789         1.344278        -0.631603
 C         3.848922         0.750089        -0.087864
 C         3.376796        -0.003258         1.188855
 O         1.970347        -0.097723         1.203853
 C         3.949845        -0.725607         0.041208
 O         3.273620        -1.671956        -0.672589
 C         1.939769        -1.164853        -0.970909
 H        -0.512579        -0.522401        -0.738563
 H        -0.378236         0.377184         0.776269
 H        -0.126853         1.194655        -0.654300
 H         2.370072         1.561780        -1.728558
 H         2.119272         2.125564         0.084307
 H         4.623553         1.445902        -0.177356
 H         3.736574         0.066459         2.200716
 H         4.997126        -1.036690         0.173060
 H         2.075116        -0.896404        -2.201056
 H         1.203959        -1.944627        -0.813810
