19
Iteration:  1089
 C         0.063639         0.385001        -0.061310
 C         1.562970         0.107727        -0.179724
 C         2.448977         1.398161        -0.381996
 C         3.803575         0.812372         0.221040
 C         3.321125        -0.257437         1.237203
 O         1.920761        -0.481852         1.095268
 C         4.012382        -0.711347         0.026371
 O         3.317781        -1.491725        -0.934160
 C         2.045601        -0.974840        -1.267406
 H        -0.462229        -0.266549        -0.803744
 H        -0.232417         0.263422         1.074787
 H        -0.031511         1.415829        -0.449567
 H         2.547210         1.691029        -1.409851
 H         2.061395         2.060025         0.357846
 H         4.653747         1.507868         0.427997
 H         3.563174        -0.391334         2.242161
 H         5.002953        -1.092264         0.117079
 H         2.081116        -0.640564        -2.306634
 H         1.316951        -1.750866        -1.102332
