19
Iteration:  4859charge 0 multiplicity 1
 C         0.033928         0.253550        -0.075365
 C         1.503927        -0.093926        -0.137373
 C         2.191276        -0.053307        -1.485108
 C         3.677800        -0.032560        -1.074289
 C         3.711859         0.885242         0.124999
 O         2.278651         1.215051         0.459552
 C         4.043344        -0.606552         0.321961
 O         3.218576        -1.537057         0.880294
 C         1.839514        -1.400894         0.557771
 H        -0.085991         1.170411         0.431711
 H        -0.381546         0.398813        -1.165701
 H        -0.593011        -0.487362         0.394055
 H         1.760859        -1.004913        -1.995923
 H         1.864418         0.873672        -1.975048
 H         4.549993         0.211303        -1.791267
 H         4.401171         1.720759         0.256851
 H         5.154171        -0.821045         0.475318
 H         1.638676        -2.206652        -0.350855
 H         1.143368        -1.729087         1.382827
