19
Iteration:   129charge 0 multiplicity 1
 C         0.037625         0.467892        -0.174443
 C         1.541811         0.057368        -0.135865
 C         2.526346         1.268484         0.375734
 C         3.753570         0.514512         0.830641
 C         3.171474        -0.943482         1.125052
 O         1.815689        -0.906949         0.870498
 C         4.065548        -0.636106        -0.118921
 O         3.514140        -0.610720        -1.439569
 C         2.026284        -0.560185        -1.424225
 H        -0.037838         1.639895        -0.550384
 H        -0.581900        -0.152844        -0.879566
 H        -0.358554         0.377120         0.821580
 H         2.889369         2.018907        -0.442875
 H         2.149996         1.847777         1.253628
 H         4.535882         1.069345         1.345148
 H         3.529705        -1.701667         1.849973
 H         5.049271        -1.036648        -0.088534
 H         1.807732         0.133381        -2.283324
 H         1.683660        -1.591210        -1.818876
