19
Iteration:  1875charge 0 multiplicity 1
 C         0.032768         0.291838        -0.301714
 C         1.540223         0.049507        -0.088548
 C         2.486224         1.163493        -0.678356
 C         3.841146         0.829123        -0.076217
 C         3.474678         0.032244         1.177281
 O         2.022343        -0.068212         1.207582
 C         4.068737        -0.627950        -0.040004
 O         3.207412        -1.647424        -0.611951
 C         1.843418        -1.264534        -0.836449
 H        -0.520485         0.030661         0.679949
 H        -0.034181         1.361989        -0.432066
 H        -0.258293        -0.183409        -1.234823
 H         2.535120         1.233593        -1.841528
 H         2.157763         2.089489        -0.357915
 H         4.704580         1.535651        -0.204667
 H         3.808768         0.019120         2.272584
 H         5.088565        -0.913548        -0.094384
 H         1.676524        -0.971852        -1.900111
 H         1.136841        -2.092497        -0.415169
