19
Iteration:  3374
 C         0.082204         0.287920        -0.181905
 C         1.566024         0.015049        -0.117639
 C         2.388082         0.441620        -1.400815
 C         3.751576         0.379288        -0.826000
 C         3.480698         0.684394         0.576251
 O         2.103499         0.903879         0.793602
 C         4.012657        -0.716155         0.243329
 O         3.247571        -1.831503         0.211249
 C         1.862095        -1.474275         0.270332
 H        -0.150077         0.986057        -1.038096
 H        -0.401390        -0.649772        -0.109640
 H        -0.212264         0.670355         0.786646
 H         2.223776        -0.274263        -2.289210
 H         2.105897         1.525561        -1.620604
 H         4.562659         0.819062        -1.373772
 H         4.134617         1.376499         1.216622
 H         5.064780        -0.809092         0.511659
 H         1.368027        -2.098488        -0.414294
 H         1.387719        -1.746368         1.366434
