19
Iteration:  1188charge 0 multiplicity 1
 C         0.032129         0.381570        -0.209979
 C         1.571263         0.099062        -0.151714
 C         2.555970         1.279312        -0.381365
 C         3.794249         0.782277         0.241807
 C         3.293160        -0.294430         1.182956
 O         1.917706        -0.279553         1.213606
 C         4.018537        -0.689792        -0.029374
 O         3.371076        -1.368005        -1.078070
 C         1.955156        -1.160980        -1.020578
 H        -0.205144         1.431945         0.119432
 H        -0.157721         0.490759        -1.328888
 H        -0.593579        -0.452306         0.136695
 H         2.505688         1.609396        -1.413313
 H         2.293044         2.248708         0.243642
 H         4.516138         1.550971         0.488152
 H         3.801613        -0.503756         2.168033
 H         5.042226        -1.212841         0.084820
 H         1.480810        -1.286731        -1.981033
 H         1.470357        -1.933585        -0.411605
