19
Iteration:  4922
 C         0.010547         0.356435        -0.284948
 C         1.521254        -0.013014        -0.067063
 C         2.260838        -0.180578        -1.373521
 C         3.716435         0.115486        -1.074539
 C         3.608123         0.937639         0.209101
 O         2.256677         1.035069         0.541834
 C         4.061778        -0.563118         0.234823
 O         3.238164        -1.673669         0.588389
 C         1.814805        -1.299871         0.822203
 H        -0.017318         1.404333        -0.291778
 H        -0.296668        -0.172087        -1.238042
 H        -0.790152         0.116508         0.505975
 H         2.146628        -1.191946        -1.720825
 H         1.694363         0.397637        -2.079202
 H         4.440327         0.309163        -1.925677
 H         4.306967         1.697556         0.439141
 H         5.157981        -0.875632         0.241631
 H         1.271665        -2.088541         0.389394
 H         1.669943        -1.229123         1.886832
