19
Iteration:  4021charge 0 multiplicity 1
 C         0.087669         0.244356        -0.090217
 C         1.525934        -0.032433        -0.141963
 C         2.297327         0.010592        -1.496903
 C         3.719824         0.148597        -1.033882
 C         3.630794         0.845645         0.287042
 O         2.285531         1.068029         0.664872
 C         4.010978        -0.585786         0.196217
 O         3.181886        -1.585165         0.744153
 C         1.767784        -1.443312         0.391101
 H         0.046827         0.919464         0.736329
 H        -0.387101         0.920539        -0.886901
 H        -0.574232        -0.595783        -0.010071
 H         1.958193        -0.947648        -2.055067
 H         1.873146         0.914477        -2.009167
 H         4.429049         0.211568        -1.822302
 H         4.356618         1.647152         0.547418
 H         5.060270        -0.711628         0.524303
 H         1.497594        -2.285394        -0.401896
 H         1.204252        -1.662950         1.385451
