19
Iteration:  1519
 C         0.028603         0.445692        -0.407761
 C         1.552882         0.012261        -0.113436
 C         2.515176         1.166480        -0.512690
 C         3.803811         0.770694         0.066999
 C         3.374016        -0.111593         1.223306
 O         1.896124        -0.074035         1.316640
 C         4.068741        -0.719405        -0.050476
 O         3.342257        -1.407885        -1.024593
 C         1.952258        -1.370802        -0.745524
 H        -0.456264         0.629966         0.636397
 H        -0.088963         1.414257        -0.852140
 H        -0.618816        -0.296366        -0.892820
 H         2.441500         1.282801        -1.551455
 H         2.084677         2.127654        -0.082239
 H         4.579651         1.473994         0.159265
 H         3.874269        -0.125561         2.163474
 H         5.145450        -1.148030        -0.057869
 H         1.486389        -1.356760        -1.799452
 H         1.611562        -2.261422        -0.059932
