19
Iteration:  4899
 C         0.079244         0.303571        -0.165388
 C         1.534149        -0.051822        -0.208661
 C         2.231965        -0.177490        -1.571410
 C         3.737022         0.070966        -1.115768
 C         3.564724         0.871093         0.222140
 O         2.256735         0.992000         0.638222
 C         4.086733        -0.607104         0.214753
 O         3.214927        -1.522490         0.727818
 C         1.789280        -1.250308         0.730011
 H         0.025883         1.324308         0.253152
 H        -0.359552         0.098156        -1.133070
 H        -0.630255        -0.230496         0.597569
 H         2.133316        -1.041105        -2.170023
 H         1.807295         0.638234        -2.205582
 H         4.459242         0.315830        -1.911087
 H         4.250510         1.637371         0.414621
 H         5.106834        -0.790225         0.646706
 H         1.252917        -2.121241         0.542122
 H         1.555888        -0.866448         1.724139
