19
Iteration:  3289
 C         0.071476         0.369690        -0.226547
 C         1.522687        -0.037964        -0.159387
 C         2.342907         0.434520        -1.350878
 C         3.765992         0.442471        -0.820363
 C         3.530698         0.718701         0.666911
 O         2.163433         0.797335         0.853786
 C         4.066753        -0.641120         0.233775
 O         3.245943        -1.820149         0.220433
 C         1.816209        -1.602880         0.164422
 H        -0.701378        -0.463261         0.014224
 H        -0.203737         0.966598         0.626740
 H        -0.148129         0.937959        -1.237340
 H         2.099555        -0.108950        -2.181733
 H         1.886529         1.501143        -1.470033
 H         4.485203         1.062137        -1.327587
 H         4.019676         1.657090         1.120507
 H         5.131511        -0.821907         0.423080
 H         1.361206        -2.440564        -0.509082
 H         1.544955        -1.761153         1.138622
