19
Iteration:  3388charge 0 multiplicity 1
 C         0.031145         0.280954        -0.163751
 C         1.539396         0.022325        -0.237987
 C         2.288096         0.398177        -1.440291
 C         3.768750         0.379569        -0.872187
 C         3.547151         0.709119         0.684430
 O         2.150703         0.842228         0.839494
 C         4.069017        -0.657864         0.189142
 O         3.256072        -1.868489         0.358198
 C         1.863031        -1.440703         0.201357
 H        -0.213774         1.256568        -0.751439
 H        -0.561465        -0.425833        -0.738279
 H        -0.299506         0.523634         0.940053
 H         2.079765        -0.133823        -2.311738
 H         2.080428         1.537750        -1.764623
 H         4.600278         0.855209        -1.435030
 H         4.114203         1.429759         1.343410
 H         5.107383        -0.898456         0.383368
 H         1.318022        -2.145757        -0.510942
 H         1.412106        -1.512468         1.236969
