19
Iteration:  1964charge 0 multiplicity 1
 C         0.071755         0.415371        -0.272873
 C         1.509722         0.060372        -0.141362
 C         2.512957         1.034707        -0.782535
 C         3.802778         0.812569        -0.083680
 C         3.420952         0.060699         1.158836
 O         1.992965        -0.121247         1.296985
 C         4.035401        -0.652229        -0.012784
 O         3.275275        -1.519282        -0.729286
 C         1.883391        -1.301187        -0.685683
 H        -0.370950        -0.151499        -1.108822
 H        -0.493786         0.099689         0.640502
 H        -0.212768         1.495777        -0.435837
 H         2.567818         0.860294        -1.922118
 H         2.190302         2.015081        -0.828241
 H         4.651654         1.473932        -0.142769
 H         3.886820         0.295600         2.050258
 H         5.059597        -1.021358         0.029147
 H         1.643018        -1.577105        -1.717453
 H         1.361245        -2.056033         0.065464
