19
Iteration:  2476
 C         0.008012         0.331605        -0.226993
 C         1.504106         0.054572        -0.173658
 C         2.456975         0.783676        -1.058285
 C         3.822169         0.762851        -0.427791
 C         3.541005         0.279183         1.042690
 O         2.064423         0.351335         1.239273
 C         4.045578        -0.645486         0.065970
 O         3.252196        -1.705840        -0.280565
 C         1.815100        -1.437342        -0.504356
 H        -0.378935         1.246907        -0.551083
 H        -0.439294        -0.405652        -0.887338
 H        -0.389406         0.122576         0.782674
 H         2.488391         0.395006        -2.036278
 H         2.182118         1.898770        -1.244747
 H         4.638840         1.432807        -0.734614
 H         3.977729         0.699320         1.991495
 H         5.090011        -1.138965         0.186980
 H         1.601320        -1.580092        -1.630873
 H         1.268702        -2.186833         0.056596
