19
Iteration:   879charge 0 multiplicity 1
 C         0.077769         0.386168        -0.137140
 C         1.550479         0.095473        -0.157141
 C         2.442881         1.378952        -0.174759
 C         3.729648         0.773078         0.371806
 C         3.335983        -0.359044         1.229570
 O         1.932281        -0.599257         1.073443
 C         4.089742        -0.721722        -0.083843
 O         3.278412        -1.420877        -0.986502
 C         2.060445        -0.775136        -1.326652
 H        -0.410418         0.575879        -1.091632
 H        -0.541683        -0.532974         0.230249
 H        -0.157689         1.293799         0.441770
 H         2.533368         1.696450        -1.199407
 H         2.062543         2.156099         0.526812
 H         4.487280         1.505636         0.566268
 H         3.751615        -0.623198         2.175195
 H         5.140240        -1.131615        -0.035745
 H         2.330118        -0.031002        -2.104293
 H         1.405349        -1.589548        -1.705436
