19
Iteration:  4218
 C        -0.004509         0.210728        -0.116701
 C         1.524324        -0.063986        -0.153447
 C         2.238379         0.144697        -1.494166
 C         3.751748         0.217419        -1.082281
 C         3.722225         0.773284         0.281013
 O         2.307815         0.939893         0.656173
 C         4.056314        -0.669001         0.132607
 O         3.134135        -1.469817         0.809668
 C         1.777825        -1.417484         0.461673
 H        -0.353233         0.993338         0.726375
 H        -0.261722         0.613529        -1.212647
 H        -0.573099        -0.665922         0.155668
 H         2.072168        -0.748125        -2.126715
 H         1.850902         1.067716        -2.001321
 H         4.714932         0.486100        -1.581646
 H         4.263344         1.651373         0.598193
 H         5.027942        -1.040605         0.432443
 H         1.653183        -2.324600        -0.225923
 H         1.164681        -1.515336         1.327226
