19
Iteration:   825charge 0 multiplicity 1
 C         0.028814         0.361247        -0.157715
 C         1.618765         0.070194        -0.160887
 C         2.502213         1.306741        -0.109988
 C         3.785257         0.757297         0.381831
 C         3.311520        -0.473128         1.287738
 O         1.895951        -0.524114         1.054058
 C         4.025569        -0.677964        -0.032874
 O         3.346631        -1.344904        -1.106348
 C         2.018928        -0.744441        -1.332221
 H        -0.372401        -0.575069        -0.415969
 H        -0.361713         0.827748         0.840266
 H        -0.299056         1.111630        -0.839920
 H         2.490203         1.780985        -1.110726
 H         2.037685         2.059344         0.598167
 H         4.548223         1.471018         0.664607
 H         3.678073        -0.631936         2.251851
 H         5.094018        -1.032082         0.050396
 H         1.909215        -0.326994        -2.382843
 H         1.321219        -1.644884        -1.477539
