19
Iteration:  1906charge 0 multiplicity 1
 C         0.077142         0.320387        -0.240257
 C         1.551478         0.096914        -0.112232
 C         2.530491         1.113351        -0.835895
 C         3.827803         0.779744        -0.067249
 C         3.332726         0.047166         1.227740
 O         1.950824         0.026816         1.271180
 C         4.031978        -0.767627         0.093012
 O         3.323673        -1.524533        -0.971295
 C         1.867739        -1.308433        -0.633394
 H        -0.385374        -0.656910         0.140312
 H        -0.190406         1.061440         0.478882
 H        -0.249958         0.588062        -1.190880
 H         2.587367         0.832958        -1.892804
 H         2.274268         2.113328        -0.542412
 H         4.685105         1.493745        -0.081345
 H         3.763453         0.135377         2.305778
 H         5.066530        -1.045356         0.266306
 H         1.360809        -1.515302        -1.679012
 H         1.481547        -2.066759         0.075858
