19
Iteration:  1798
 C         0.115098         0.276856        -0.140883
 C         1.607362         0.099272        -0.154709
 C         2.535869         1.308172        -0.759478
 C         3.764041         0.790977        -0.067942
 C         3.425117         0.040410         1.253983
 O         2.019170        -0.158469         1.182691
 C         3.943107        -0.710558         0.086165
 O         3.240038        -1.652324        -0.650954
 C         1.858347        -1.179774        -0.984350
 H        -0.285147         1.382262        -0.125704
 H        -0.258851        -0.290615        -1.009538
 H        -0.189983        -0.290905         0.731838
 H         2.470840         1.195537        -1.921095
 H         2.242312         2.299068        -0.624544
 H         4.683477         1.332789        -0.120242
 H         3.741108         0.283514         2.312925
 H         5.019437        -1.039314         0.101367
 H         1.766888        -1.025153        -1.999951
 H         1.093431        -2.034404        -0.774040
