19
Iteration:  4599
 C         0.096187         0.221851        -0.164545
 C         1.608802         0.014085        -0.149454
 C         2.213044        -0.080887        -1.454080
 C         3.667313        -0.019448        -1.044133
 C         3.561064         0.875794         0.142691
 O         2.272635         1.178591         0.490484
 C         3.999686        -0.583557         0.287896
 O         3.264542        -1.602022         0.870985
 C         1.825352        -1.330760         0.538233
 H        -0.038603         1.066398         0.534398
 H        -0.427287         0.339303        -1.199534
 H        -0.502996        -0.466910         0.409208
 H         1.871893        -1.039332        -1.873233
 H         1.871391         0.758058        -1.979577
 H         4.218984         0.038980        -1.953786
 H         4.371751         1.600909         0.409774
 H         5.057057        -0.620798         0.454220
 H         1.409529        -2.204390        -0.042531
 H         1.346116        -1.470470         1.465251
