19
Iteration:  3384
 C         0.070120         0.291185        -0.170064
 C         1.523661         0.007561        -0.174157
 C         2.295546         0.430714        -1.432797
 C         3.763674         0.370379        -0.843164
 C         3.517579         0.709098         0.651775
 O         2.144637         0.857350         0.806297
 C         4.046350        -0.666336         0.192766
 O         3.270977        -1.878565         0.318738
 C         1.870030        -1.425277         0.213477
 H        -0.270352         1.135785        -0.791124
 H        -0.526482        -0.519621        -0.578656
 H        -0.183660         0.588658         0.793328
 H         2.068716        -0.193494        -2.393930
 H         2.216221         1.475108        -1.708127
 H         4.532412         0.877689        -1.390158
 H         4.032680         1.424289         1.361099
 H         5.025431        -1.048423         0.478313
 H         1.432416        -2.097443        -0.454386
 H         1.403634        -1.542858         1.309698
