19
Iteration:  3617
 C         0.079386         0.205933        -0.190311
 C         1.491492        -0.008805        -0.136532
 C         2.283395         0.321633        -1.501416
 C         3.726591         0.252958        -0.977945
 C         3.596552         0.841885         0.408173
 O         2.276284         0.893568         0.803317
 C         4.075082        -0.665884         0.196785
 O         3.174000        -1.733181         0.632941
 C         1.781538        -1.424757         0.293802
 H        -0.237220         0.459635        -1.169286
 H        -0.378673        -0.683820         0.184023
 H        -0.182808         1.033945         0.534766
 H         1.948161        -0.287730        -2.317550
 H         2.048010         1.454689        -1.650576
 H         4.500420         0.571698        -1.658241
 H         4.254047         1.595058         0.886956
 H         5.125066        -0.846385         0.449540
 H         1.436565        -2.037727        -0.571564
 H         1.297740        -1.726281         1.112216
