19
Iteration:  3795charge 0 multiplicity 1
 C         0.038603         0.468836        -0.107329
 C         1.527745        -0.016752        -0.169949
 C         2.328677         0.023761        -1.505109
 C         3.745349         0.299538        -1.011289
 C         3.555108         0.815744         0.387923
 O         2.154066         0.868440         0.755262
 C         4.046030        -0.626814         0.193773
 O         3.254190        -1.666176         0.579951
 C         1.830727        -1.446711         0.420927
 H        -0.574070        -0.197035         0.535043
 H        -0.032603         1.532984         0.213242
 H        -0.387181         0.276021        -1.032506
 H         2.291422        -0.833784        -2.086315
 H         1.942230         0.828363        -2.185912
 H         4.476518         0.707525        -1.748829
 H         4.199064         1.486540         0.843213
 H         5.107916        -1.004144         0.355381
 H         1.520254        -2.389894        -0.296996
 H         1.479675        -1.474342         1.420989
