19
Iteration:  3163
 C         0.117069         0.286149        -0.225767
 C         1.598617        -0.067057        -0.112678
 C         2.467036         0.384286        -1.368989
 C         3.824592         0.582397        -0.748521
 C         3.532953         0.658506         0.743596
 O         2.098188         0.709151         1.044473
 C         4.019262        -0.595599         0.153347
 O         3.144259        -1.708552        -0.003565
 C         1.730170        -1.474015         0.123755
 H        -0.298525         1.222400        -0.515872
 H        -0.375139        -0.553631        -0.803158
 H        -0.302518         0.225043         0.783655
 H         2.403965        -0.493465        -2.141810
 H         2.131569         1.302635        -1.739350
 H         4.632502         0.927159        -1.397743
 H         4.134811         1.335668         1.443870
 H         5.029552        -0.895344         0.298183
 H         1.368805        -2.121904        -0.605073
 H         1.338867        -1.878436         1.126505
