19
Iteration:   269
 C         0.093167         0.436154        -0.108551
 C         1.531034         0.108208        -0.084712
 C         2.361582         1.311678         0.341395
 C         3.700513         0.606238         0.573563
 C         3.273559        -0.751207         1.103300
 O         1.851836        -0.827367         0.911744
 C         4.040743        -0.667088        -0.146754
 O         3.438857        -1.120830        -1.269983
 C         2.169873        -0.400186        -1.457840
 H        -0.047947         1.024821        -1.094137
 H        -0.522962        -0.465979        -0.365659
 H        -0.377791         0.993062         0.655790
 H         2.389834         2.226992        -0.370715
 H         2.074481         1.610495         1.356179
 H         4.546404         1.256238         0.953792
 H         3.698751        -1.292189         1.987140
 H         5.129126        -0.923730        -0.024705
 H         2.237417         0.442009        -2.140115
 H         1.591504        -1.097613        -2.028170
