19
Iteration:  4583
 C        -0.001001         0.263364        -0.175237
 C         1.509359         0.022047        -0.049276
 C         2.257188        -0.087394        -1.508751
 C         3.740353        -0.021661        -1.122404
 C         3.614009         0.860593         0.192816
 O         2.208454         1.160092         0.482711
 C         4.064180        -0.597177         0.254766
 O         3.247520        -1.637131         0.761198
 C         1.878279        -1.325713         0.724196
 H        -0.424218         1.261558         0.113147
 H        -0.231403         0.217806        -1.192375
 H        -0.551633        -0.558963         0.413062
 H         1.970192        -0.961518        -2.131445
 H         2.102774         0.878184        -2.105408
 H         4.610158         0.249993        -1.798257
 H         4.178961         1.747976         0.363550
 H         5.109314        -0.824089         0.572708
 H         1.321947        -2.118093         0.173345
 H         1.297308        -1.242499         1.781300
