19
Iteration:  3766charge 0 multiplicity 1
 C         0.082497         0.270111        -0.227584
 C         1.565195         0.009735        -0.064363
 C         2.271552         0.061203        -1.420274
 C         3.722771         0.283438        -0.999166
 C         3.610411         0.802381         0.474050
 O         2.233003         1.035284         0.756900
 C         4.037392        -0.643019         0.243080
 O         3.176793        -1.716619         0.350354
 C         1.790309        -1.380325         0.498025
 H        -0.463144         0.154577         0.773858
 H        -0.238402         1.118067        -0.816636
 H        -0.211200        -0.630971        -0.886572
 H         2.146852        -0.895155        -2.137280
 H         1.949376         0.919142        -2.073441
 H         4.469466         0.734663        -1.632535
 H         4.378198         1.537521         0.855032
 H         5.061731        -1.017947         0.437633
 H         1.264787        -2.093561        -0.006424
 H         1.547114        -1.382423         1.609030
