19
Iteration:  1242charge 0 multiplicity 1
 C        -0.001187         0.378587        -0.067949
 C         1.548889         0.078662        -0.223673
 C         2.474330         1.308681        -0.461856
 C         3.818629         0.830393         0.144092
 C         3.372722        -0.158743         1.197044
 O         1.934872        -0.387284         1.101011
 C         4.084218        -0.722497         0.006379
 O         3.245268        -1.589687        -0.706617
 C         2.048639        -0.995064        -1.231886
 H        -0.342089        -0.079238         0.917722
 H        -0.364284         1.448691        -0.059713
 H        -0.638882        -0.097390        -0.819788
 H         2.375197         1.608856        -1.514678
 H         2.042013         2.358183         0.082341
 H         4.686813         1.470531         0.135229
 H         3.774008        -0.135900         2.264002
 H         5.182076        -1.127139        -0.006812
 H         2.359744        -0.321988        -2.166888
 H         1.304564        -1.802049        -1.621848
