19
Iteration:  3170
 C         0.113504         0.301914        -0.233650
 C         1.575451        -0.016834        -0.145189
 C         2.438129         0.391698        -1.319878
 C         3.816733         0.564976        -0.788115
 C         3.538265         0.687430         0.747523
 O         2.114453         0.695640         1.032077
 C         4.033583        -0.592452         0.107718
 O         3.186826        -1.705569         0.078411
 C         1.697435        -1.550041         0.111138
 H        -0.226705         1.331760        -0.410795
 H        -0.359199        -0.297234        -0.957742
 H        -0.321615        -0.110885         0.755117
 H         2.530238        -0.372198        -2.123271
 H         2.122560         1.443749        -1.722535
 H         4.563695         0.950185        -1.448091
 H         4.069943         1.169695         1.532804
 H         5.057434        -0.982159         0.310138
 H         1.314951        -2.229247        -0.708496
 H         1.291500        -1.809688         1.132797
