19
Iteration:  3525charge 0 multiplicity 1
 C        -0.021550         0.328375        -0.307225
 C         1.511149         0.037994        -0.084356
 C         2.291470         0.102173        -1.367261
 C         3.762522         0.409082        -0.847681
 C         3.556637         0.670408         0.588882
 O         2.186777         0.949736         0.825843
 C         4.114972        -0.665786         0.144025
 O         3.203258        -1.746894         0.192405
 C         1.898750        -1.398154         0.442096
 H        -0.692852        -0.573949        -0.161971
 H        -0.326408         1.148918         0.442905
 H        -0.205763         0.727528        -1.288263
 H         2.427449        -0.848927        -2.000611
 H         1.995505         0.908596        -1.941450
 H         4.441414         1.116447        -1.336492
 H         4.103148         1.507409         1.161720
 H         5.083382        -1.035026         0.386929
 H         1.226821        -2.267816         0.030622
 H         1.762730        -1.360807         1.471000
