19
Iteration:  4609charge 0 multiplicity 1
 C         0.091974         0.222343        -0.106018
 C         1.554929        -0.022958        -0.113210
 C         2.172270        -0.091635        -1.559996
 C         3.638704         0.020925        -1.121042
 C         3.670608         0.899675         0.214593
 O         2.264091         1.109615         0.485058
 C         4.043613        -0.585609         0.269502
 O         3.210260        -1.543379         0.923389
 C         1.853708        -1.350929         0.549799
 H         0.019243         1.102338         0.465637
 H        -0.338342         0.682762        -1.068799
 H        -0.497536        -0.590865         0.342292
 H         1.995890        -1.090990        -2.015768
 H         1.909647         0.614725        -2.273248
 H         4.433098        -0.046312        -1.833564
 H         4.240223         1.854417         0.485844
 H         5.055540        -0.801419         0.561332
 H         1.558027        -2.070095        -0.305626
 H         1.151585        -1.426025         1.394238
