19
Iteration:  4745
 C        -0.001003         0.316247        -0.164051
 C         1.570137        -0.020259        -0.110596
 C         2.317842        -0.242100        -1.451158
 C         3.732269         0.149802        -1.102135
 C         3.557117         0.853713         0.266693
 O         2.206945         1.174031         0.379816
 C         4.042029        -0.633760         0.195014
 O         3.217878        -1.692740         0.603257
 C         1.873853        -1.195710         0.913330
 H        -0.603911        -0.392289         0.604657
 H        -0.232772         1.308171         0.121920
 H        -0.429240        -0.122011        -1.135331
 H         2.174674        -1.270044        -1.680053
 H         2.022828         0.431831        -2.308408
 H         4.487188         0.382423        -1.807302
 H         4.175499         1.739635         0.645492
 H         5.012993        -0.946612         0.504049
 H         1.303543        -2.225549         0.686590
 H         1.611049        -0.950702         1.945888
