19
Iteration:  4796
 C         0.106534         0.325173        -0.175311
 C         1.535567        -0.112372        -0.113205
 C         2.205705        -0.143844        -1.505439
 C         3.707499         0.159174        -1.177210
 C         3.666045         0.857554         0.155383
 O         2.242204         0.950968         0.541045
 C         4.033774        -0.541686         0.131624
 O         3.209125        -1.491655         0.893356
 C         1.751771        -1.326430         0.731514
 H        -0.314640         0.606900         0.819569
 H        -0.016513         1.307902        -0.679635
 H        -0.353961        -0.499018        -0.626730
 H         2.211128        -1.170772        -1.957283
 H         1.893645         0.565710        -2.253749
 H         4.544763         0.293877        -1.914755
 H         4.368002         1.613780         0.535394
 H         5.045471        -0.901582         0.416215
 H         1.459461        -2.273669         0.324555
 H         1.280786        -1.115885         1.704786
