19
Iteration:  2442charge 0 multiplicity 1
 C         0.087958         0.384564        -0.155094
 C         1.564996         0.020944        -0.256782
 C         2.400264         1.039040        -1.055484
 C         3.811764         0.785656        -0.526192
 C         3.445275         0.387686         0.991583
 O         2.078438         0.130207         1.134504
 C         3.988208        -0.719502         0.180079
 O         3.240327        -1.817049        -0.104971
 C         1.871273        -1.455037        -0.611714
 H        -0.393893         0.787684        -0.981144
 H        -0.335905        -0.509501         0.220960
 H         0.050467         1.040769         0.772745
 H         2.251708         0.935768        -2.066693
 H         2.083358         2.139648        -0.713049
 H         4.622833         1.432300        -0.898883
 H         3.968180         0.901315         1.804944
 H         5.025608        -0.994608         0.357054
 H         1.833781        -1.623909        -1.719401
 H         1.175803        -2.095431        -0.166474
