19
Iteration:  3405
 C         0.013121         0.325991        -0.195970
 C         1.508544        -0.047196        -0.143897
 C         2.394862         0.415509        -1.489143
 C         3.747047         0.435939        -0.897554
 C         3.598878         0.684372         0.577097
 O         2.203609         0.749685         0.925033
 C         4.026064        -0.625616         0.172815
 O         3.215056        -1.693211         0.426239
 C         1.779727        -1.489124         0.180662
 H        -0.244605         1.369308        -0.164325
 H        -0.521766        -0.179696        -1.026056
 H        -0.372095        -0.075048         0.685171
 H         2.341510        -0.471655        -2.231530
 H         2.116607         1.314434        -1.933302
 H         4.567137         0.725943        -1.524347
 H         4.192688         1.401523         1.178725
 H         5.043238        -1.012517         0.299895
 H         1.562376        -2.224118        -0.572431
 H         1.220525        -1.773732         1.109392
