19
Iteration:  3435charge 0 multiplicity 1
 C         0.133814         0.390311        -0.231706
 C         1.540289        -0.058536        -0.143206
 C         2.298581         0.280358        -1.397711
 C         3.681554         0.426863        -0.943134
 C         3.602262         0.766099         0.554334
 O         2.225133         0.719467         0.965110
 C         4.080707        -0.571866         0.204314
 O         3.196621        -1.689211         0.498610
 C         1.746149        -1.530713         0.091167
 H        -0.087395         1.100604         0.542455
 H        -0.248487         0.832385        -1.258181
 H        -0.527669        -0.472510         0.099278
 H         2.212966        -0.504623        -2.194690
 H         1.923806         1.186668        -1.917341
 H         4.440612         0.726775        -1.651554
 H         4.118670         1.573930         0.982832
 H         5.134671        -0.977931         0.273878
 H         1.571621        -2.217810        -0.861671
 H         1.137683        -1.788353         0.854857
