19
Iteration:  1304charge 0 multiplicity 1
 C         0.005878         0.386632        -0.287699
 C         1.544313         0.083732        -0.125814
 C         2.498705         1.235647        -0.528975
 C         3.801613         0.779951         0.183861
 C         3.413874        -0.171242         1.256889
 O         1.939636        -0.232204         1.285583
 C         4.057498        -0.717137        -0.047787
 O         3.326028        -1.426025        -0.953641
 C         1.916721        -1.143605        -0.962648
 H        -0.373306        -0.461922        -0.836728
 H        -0.522655         0.300877         0.715398
 H        -0.058089         1.287716        -0.950661
 H         2.375162         1.222636        -1.662270
 H         2.170173         2.176826        -0.195329
 H         4.734900         1.361791         0.231323
 H         3.846465        -0.327483         2.290056
 H         5.137020        -1.095586        -0.031875
 H         1.664858        -0.969865        -1.993376
 H         1.329699        -2.061758        -0.863223
