19
Iteration:  1342charge 0 multiplicity 1
 C         0.094792         0.459445        -0.108578
 C         1.499840         0.028974        -0.188156
 C         2.563254         1.115122        -0.657578
 C         3.857864         0.814332         0.273513
 C         3.260222        -0.170169         1.248330
 O         1.826925        -0.144505         1.181343
 C         4.032514        -0.727566         0.010183
 O         3.355299        -1.237236        -1.127392
 C         1.993419        -1.424093        -0.879752
 H        -0.566620         0.337505        -0.992764
 H        -0.310113        -0.027785         0.721056
 H        -0.053575         1.441580         0.228787
 H         2.927758         1.146682        -1.630815
 H         2.141113         2.087200        -0.269981
 H         4.747368         1.460286         0.269914
 H         3.580896        -0.272101         2.254445
 H         4.969487        -1.161265         0.034278
 H         1.591978        -1.521332        -1.913300
 H         1.846088        -2.181189        -0.089631
