19
Iteration:  3869charge 0 multiplicity 1
 C        -0.025289         0.163895        -0.182425
 C         1.547918         0.027309        -0.083609
 C         2.276960         0.189047        -1.411683
 C         3.700250         0.202451        -1.077380
 C         3.730524         0.786641         0.337773
 O         2.287017         1.011087         0.669549
 C         4.016816        -0.633811         0.225602
 O         3.166330        -1.642723         0.709222
 C         1.818034        -1.372626         0.382417
 H        -0.398575        -0.170207        -1.133891
 H        -0.529585        -0.520131         0.616941
 H        -0.346941         1.210317        -0.160394
 H         1.997127        -0.673153        -2.069732
 H         2.043908         1.114731        -1.975301
 H         4.510755         0.289960        -1.830613
 H         4.323251         1.500197         0.809278
 H         5.039704        -1.118254         0.161712
 H         1.442035        -2.103131        -0.235561
 H         1.309518        -1.391299         1.360927
