19
Iteration:  4035charge 0 multiplicity 1
 C         0.007398         0.393066        -0.039694
 C         1.543174        -0.010921        -0.098953
 C         2.269913        -0.074736        -1.479058
 C         3.738410         0.175313        -1.109524
 C         3.619180         0.868359         0.246844
 O         2.240719         0.949896         0.649076
 C         4.107411        -0.604790         0.231318
 O         3.160860        -1.544680         0.768658
 C         1.817746        -1.447385         0.375052
 H        -0.460765         0.673866         0.952459
 H        -0.182787         1.067012        -0.860012
 H        -0.466027        -0.492963        -0.303623
 H         2.285346        -1.036421        -1.954235
 H         2.062471         0.698359        -2.310911
 H         4.492206         0.564077        -1.790411
 H         4.234757         1.721600         0.716118
 H         5.072357        -0.983185         0.374884
 H         1.560049        -2.099824        -0.435754
 H         1.162293        -1.795820         1.307479
