19
Iteration:  3144
 C         0.002054         0.291511        -0.174157
 C         1.563708         0.040933        -0.139872
 C         2.372687         0.414254        -1.382677
 C         3.780593         0.529873        -0.669802
 C         3.492193         0.641626         0.758074
 O         2.137205         0.773426         0.966759
 C         4.050500        -0.691746         0.243756
 O         3.263183        -1.820484        -0.128870
 C         1.838212        -1.429194         0.148185
 H        -0.299950         1.023241        -1.064307
 H        -0.609826        -0.678996        -0.390506
 H        -0.446511         0.769479         0.673906
 H         2.519773        -0.464354        -1.949991
 H         2.200715         1.370787        -1.915343
 H         4.505602         1.266179        -1.120394
 H         4.013830         1.191114         1.578776
 H         5.005467        -1.074139         0.586665
 H         1.223882        -2.251816        -0.515013
 H         1.704966        -1.594068         1.181174
