19
Iteration:  2390charge 0 multiplicity 1
 C         0.068207         0.233954        -0.220887
 C         1.553103         0.064079        -0.105551
 C         2.424896         0.976719        -1.068548
 C         3.850082         0.745554        -0.402804
 C         3.472797         0.344218         1.073581
 O         2.126643         0.240702         1.258504
 C         3.963708        -0.673273         0.112998
 O         3.174222        -1.729567        -0.323046
 C         1.850460        -1.388191        -0.636175
 H        -0.263385        -0.734631        -0.570370
 H        -0.403898         0.499971         0.754350
 H        -0.155684         0.915919        -1.103129
 H         2.435458         0.639782        -2.134146
 H         2.320215         2.011355        -1.138098
 H         4.722415         1.345517        -0.695190
 H         4.060599         0.503135         1.992222
 H         4.967009        -1.106714         0.384987
 H         1.578307        -1.550289        -1.717262
 H         1.143973        -1.980838         0.111003
