19
Iteration:  4233
 C         0.023835         0.251090        -0.104654
 C         1.535963         0.013384        -0.215951
 C         2.264783         0.144559        -1.595356
 C         3.666437         0.116530        -1.113249
 C         3.600347         0.807480         0.322091
 O         2.256701         0.935767         0.671948
 C         4.054079        -0.649095         0.244735
 O         3.219145        -1.585279         0.897801
 C         1.865286        -1.360835         0.403095
 H        -0.048074         1.022304         0.687939
 H        -0.487890         0.598665        -0.929962
 H        -0.494492        -0.671529         0.248058
 H         1.958093        -0.502149        -2.405302
 H         2.071343         1.208127        -2.011437
 H         4.371412         0.252827        -1.949377
 H         4.340399         1.505769         0.717365
 H         5.167319        -0.836717         0.211727
 H         1.539256        -2.104278        -0.373392
 H         1.265901        -1.576034         1.295130
