19
Iteration:  4452charge 0 multiplicity 1
 C        -0.027375         0.265951        -0.111100
 C         1.523081        -0.052967        -0.133483
 C         2.276416        -0.019315        -1.505666
 C         3.686867         0.119186        -1.098591
 C         3.674352         0.849264         0.211848
 O         2.299295         0.952916         0.590227
 C         4.078720        -0.620367         0.192457
 O         3.189881        -1.491950         0.891283
 C         1.813348        -1.367505         0.522634
 H        -0.442457        -0.176919        -1.082026
 H        -0.565993         0.059650         0.802095
 H        -0.338902         1.341139        -0.370402
 H         2.108288        -0.788218        -2.227353
 H         1.887681         0.911769        -1.983254
 H         4.555868         0.297368        -1.781116
 H         4.168468         1.776943         0.364021
 H         5.091037        -0.990073         0.384703
 H         1.479877        -2.091683        -0.344253
 H         1.352902        -1.422783         1.491853
