19
Iteration:  1067
 C         0.025198         0.314722        -0.180420
 C         1.545980         0.121597        -0.188298
 C         2.412949         1.385606        -0.255530
 C         3.798782         0.733570         0.186643
 C         3.386165        -0.249414         1.228490
 O         1.964137        -0.454200         1.132970
 C         4.090496        -0.697634        -0.075348
 O         3.199243        -1.570101        -0.800384
 C         2.079552        -0.820533        -1.289684
 H        -0.544919        -0.661081        -0.228708
 H        -0.082889         0.896944         0.879949
 H        -0.312588         1.016051        -0.999819
 H         2.455794         1.555521        -1.328861
 H         1.919782         2.090513         0.394787
 H         4.685167         1.349622         0.458062
 H         3.691476        -0.402160         2.211280
 H         5.121150        -0.870297        -0.194426
 H         2.424095        -0.163474        -2.087264
 H         1.372959        -1.546851        -1.673404
