19
Iteration:  3078charge 0 multiplicity 1
 C         0.014372         0.271961        -0.273587
 C         1.499030         0.029818        -0.080327
 C         2.459722         0.522405        -1.379805
 C         3.761112         0.551951        -0.715365
 C         3.575438         0.644961         0.808014
 O         2.183840         0.585650         1.102519
 C         4.062890        -0.627219         0.069584
 O         3.182856        -1.723812         0.098951
 C         1.781790        -1.484233         0.005654
 H        -0.379751        -0.695580        -0.760659
 H        -0.523570         0.396634         0.755413
 H        -0.144779         1.163651        -0.884759
 H         2.329707        -0.261076        -2.132952
 H         2.007527         1.485599        -1.800283
 H         4.531842         1.105086        -1.230986
 H         4.187271         1.236132         1.568759
 H         5.076309        -0.933171         0.111742
 H         1.340323        -1.985602        -1.032907
 H         1.279546        -1.847323         0.863135
