19
Iteration:  1254
 C         0.041569         0.338799        -0.104927
 C         1.527064         0.155947        -0.202141
 C         2.451335         1.356093        -0.404425
 C         3.718731         0.798704         0.056945
 C         3.370234        -0.179474         1.197681
 O         1.984310        -0.361589         1.088042
 C         4.037796        -0.709482        -0.006391
 O         3.257222        -1.680432        -0.705065
 C         2.073722        -0.946261        -1.191559
 H        -0.409356        -0.378515         0.672449
 H        -0.091291         1.409004         0.173431
 H        -0.376184         0.139538        -1.108193
 H         2.535706         1.695428        -1.448261
 H         2.257128         2.252864         0.427156
 H         4.532922         1.492596         0.085185
 H         3.657388        -0.085782         2.276805
 H         5.160868        -0.892860         0.016671
 H         2.321330        -0.612470        -2.304421
 H         1.315078        -1.788468        -1.197817
