19
Iteration:  4293
 C         0.080889         0.320649        -0.170776
 C         1.546847        -0.034629        -0.139994
 C         2.334398        -0.073239        -1.569345
 C         3.682607         0.294642        -1.067450
 C         3.589307         0.804202         0.337721
 O         2.235753         0.927581         0.736040
 C         4.031693        -0.596440         0.183914
 O         3.201334        -1.591480         0.619016
 C         1.760967        -1.304373         0.583719
 H        -0.274053         0.563476         0.852869
 H        -0.209016         1.152799        -0.917764
 H        -0.451238        -0.546796        -0.452007
 H         2.310828        -1.168427        -1.865438
 H         1.943581         0.563322        -2.337888
 H         4.597428         0.417125        -1.721118
 H         4.242306         1.577102         0.680561
 H         5.091228        -0.892237         0.240572
 H         1.386730        -2.182648         0.094298
 H         1.470339        -1.403423         1.737848
