19
Iteration:  1232
 C        -0.017553         0.365917        -0.075813
 C         1.545658         0.054998        -0.183721
 C         2.450738         1.279715        -0.519675
 C         3.851729         0.791328         0.128102
 C         3.361015        -0.124654         1.237304
 O         1.963284        -0.390583         1.141371
 C         4.055931        -0.683254         0.028677
 O         3.227800        -1.538999        -0.763527
 C         2.052738        -0.967021        -1.275836
 H        -0.153562         0.225499         1.060820
 H        -0.152783         1.471754        -0.261168
 H        -0.616544        -0.319870        -0.691506
 H         2.697027         1.440350        -1.570649
 H         1.900555         2.248297         0.087492
 H         4.669154         1.371302         0.500352
 H         3.747169        -0.337724         2.286484
 H         5.097115        -1.199830         0.128878
 H         2.189671        -0.409263        -2.286453
 H         1.375597        -1.884546        -1.506559
