19
Iteration:   113charge 0 multiplicity 1
 C         0.120873         0.420064        -0.100109
 C         1.585294         0.133132        -0.149884
 C         2.435448         1.216248         0.321397
 C         3.726542         0.492166         0.741756
 C         3.181701        -0.880118         1.096729
 O         1.752248        -0.944534         0.907097
 C         4.031689        -0.711695        -0.114056
 O         3.516684        -0.674042        -1.384796
 C         2.150906        -0.365684        -1.516776
 H        -0.133916         1.111679        -0.770287
 H        -0.414967        -0.516964        -0.155380
 H        -0.101515         0.929948         0.894956
 H         2.468976         1.998231        -0.412313
 H         1.920880         1.534854         1.234539
 H         4.482464         0.938362         1.416662
 H         3.496008        -1.366491         2.009754
 H         5.093177        -1.147963        -0.085577
 H         1.980573         0.327160        -2.323464
 H         1.533958        -1.219212        -1.682207
