19
Iteration:  4091
 C         0.003803         0.297810        -0.262820
 C         1.544783        -0.042915        -0.076720
 C         2.215754         0.031016        -1.436214
 C         3.697787         0.194207        -1.074856
 C         3.642635         0.792955         0.279441
 O         2.267255         1.041517         0.599120
 C         4.053870        -0.616286         0.170033
 O         3.281018        -1.671097         0.651190
 C         1.767714        -1.351407         0.706735
 H        -0.619972        -0.384208         0.365821
 H        -0.375539         1.221717        -0.015587
 H        -0.238912         0.107841        -1.290553
 H         2.095419        -0.767744        -2.125673
 H         1.938610         1.014843        -1.934319
 H         4.517635         0.417903        -1.855054
 H         4.275466         1.584430         0.609400
 H         5.132970        -0.803678         0.402929
 H         1.251357        -2.171833         0.204274
 H         1.562107        -1.427388         1.852045
