19
Iteration:   779
 C         0.032349         0.364635        -0.246960
 C         1.471496         0.090586        -0.129940
 C         2.554114         1.234122        -0.163605
 C         3.881218         0.631066         0.528786
 C         3.262528        -0.523953         1.273500
 O         1.821497        -0.431061         1.175987
 C         4.098012        -0.733152        -0.079565
 O         3.398290        -0.908018        -1.356052
 C         1.981005        -1.004809        -1.131327
 H        -0.552817        -0.069333         0.600399
 H        -0.171657         1.408587        -0.476402
 H        -0.381951        -0.107294        -1.169317
 H         2.850922         1.616550        -1.099433
 H         2.341611         2.113335         0.479198
 H         4.728233         1.341874         0.673521
 H         3.516187        -1.059460         2.178113
 H         5.046480        -1.197890        -0.067728
 H         1.493280        -0.922058        -2.137403
 H         1.660268        -2.044472        -0.859839
