19
Iteration:  2620
 C         0.029616         0.294203        -0.159648
 C         1.511175         0.070315        -0.189292
 C         2.389020         0.967486        -1.106558
 C         3.790507         0.630458        -0.600164
 C         3.482419         0.434360         0.910437
 O         2.118126         0.326634         1.114756
 C         4.013903        -0.716958         0.116753
 O         3.224927        -1.801334         0.004697
 C         1.944008        -1.442350        -0.477199
 H        -0.608374        -0.451932        -0.644554
 H        -0.359284         0.474578         0.885191
 H        -0.148748         1.138768        -0.694789
 H         2.206608         0.796659        -2.179647
 H         2.091144         2.007350        -1.021864
 H         4.642154         1.159599        -1.041121
 H         3.991277         0.775957         1.795088
 H         5.032289        -0.930402         0.308040
 H         1.854033        -1.876548        -1.566825
 H         1.303627        -1.994631         0.201967
