19
Iteration:  4429charge 0 multiplicity 1
 C         0.128531         0.361800        -0.233898
 C         1.532208        -0.017737        -0.065680
 C         2.179425         0.017687        -1.525602
 C         3.573708        -0.041138        -1.125796
 C         3.589389         0.831155         0.241798
 O         2.219825         1.085148         0.684452
 C         4.068916        -0.580148         0.275592
 O         3.342701        -1.552656         0.852808
 C         1.835534        -1.460321         0.445947
 H        -0.495536        -0.550830        -0.619143
 H        -0.190053         0.679871         0.729201
 H        -0.127184         1.154095        -0.965745
 H         1.889757        -0.877754        -2.011540
 H         1.761314         0.836194        -2.170034
 H         4.374120         0.214600        -1.772392
 H         4.249598         1.665425         0.569792
 H         5.108578        -0.753166         0.456078
 H         1.562762        -2.099607        -0.481683
 H         1.401624        -1.736850         1.418132
