19
Iteration:  2960
 C         0.068854         0.327018        -0.250080
 C         1.558712        -0.042255        -0.144600
 C         2.366080         0.610030        -1.258846
 C         3.784633         0.645619        -0.683499
 C         3.491102         0.556758         0.791613
 O         2.097986         0.645942         1.027433
 C         4.070249        -0.710645         0.178071
 O         3.230884        -1.795855        -0.129464
 C         1.835868        -1.554371         0.064128
 H        -0.067283         1.241128         0.388673
 H        -0.127279         0.545131        -1.306361
 H        -0.549205        -0.479560         0.076210
 H         2.279794         0.224181        -2.238174
 H         2.014102         1.745067        -1.238607
 H         4.593748         1.261067        -1.011258
 H         4.054299         1.164274         1.540953
 H         5.053454        -0.971764         0.481871
 H         1.279850        -2.048406        -0.731934
 H         1.521411        -1.906892         1.183336
