19
Iteration:  4689charge 0 multiplicity 1
 C        -0.060215         0.297673        -0.224790
 C         1.540318        -0.030731        -0.026869
 C         2.232189        -0.196097        -1.394663
 C         3.718820         0.034018        -1.160658
 C         3.597646         0.880629         0.183793
 O         2.200585         1.221473         0.467058
 C         4.104469        -0.640876         0.218458
 O         3.329681        -1.624179         0.813215
 C         1.847843        -1.286152         0.703598
 H        -0.767894        -0.280504         0.552746
 H        -0.060639         1.395411        -0.246063
 H        -0.401380         0.106720        -1.228758
 H         1.958942        -1.139751        -1.803002
 H         1.848930         0.619358        -2.053381
 H         4.503308         0.204149        -1.967741
 H         4.228052         1.656993         0.543390
 H         5.148473        -1.031322         0.302617
 H         1.345882        -2.194411         0.070647
 H         1.369217        -1.203739         1.647405
