19
Iteration:  3103charge 0 multiplicity 1
 C         0.120031         0.298190        -0.252079
 C         1.525784        -0.018713        -0.142322
 C         2.426608         0.559521        -1.338876
 C         3.761374         0.617537        -0.704088
 C         3.512722         0.623111         0.742837
 O         2.111464         0.676312         0.976634
 C         4.027165        -0.669794         0.210788
 O         3.210107        -1.826253        -0.067574
 C         1.810547        -1.532526         0.177087
 H        -0.295869        -0.114680        -1.221086
 H        -0.367115        -0.166309         0.580999
 H         0.062881         1.366441        -0.113496
 H         2.271112        -0.023527        -2.205746
 H         1.901708         1.599091        -1.577076
 H         4.573565         1.163832        -1.246786
 H         4.136038         1.120478         1.469254
 H         5.071835        -0.898558         0.547832
 H         1.156235        -2.223161        -0.459998
 H         1.554313        -1.587216         1.235739
