19
Iteration:  4239
 C         0.074714         0.292948        -0.071378
 C         1.561787         0.045367        -0.251649
 C         2.239165         0.196959        -1.571548
 C         3.654548         0.014690        -1.100597
 C         3.576111         0.868488         0.335284
 O         2.208360         0.940592         0.649232
 C         4.033318        -0.623776         0.243030
 O         3.238840        -1.651747         0.893654
 C         1.899241        -1.397925         0.376866
 H        -0.216902         1.019058         0.801124
 H        -0.408379         0.666432        -1.103994
 H        -0.383421        -0.605840         0.301526
 H         1.772778        -0.583440        -2.255650
 H         2.204016         1.097119        -2.157514
 H         4.443041         0.346261        -1.810880
 H         4.320798         1.608222         0.630374
 H         5.102855        -0.741353         0.266589
 H         1.717526        -2.272957        -0.287212
 H         1.250191        -1.535546         1.302848
