19
Iteration:  3245charge 0 multiplicity 1
 C         0.052065         0.224109        -0.118695
 C         1.539879         0.006822        -0.201992
 C         2.335396         0.461484        -1.455818
 C         3.747671         0.491456        -0.797237
 C         3.628757         0.728957         0.675915
 O         2.221766         0.706589         0.953867
 C         4.075639        -0.667791         0.178880
 O         3.118054        -1.697136         0.402131
 C         1.766446        -1.517779        -0.047336
 H        -0.256501        -0.106966         0.933911
 H        -0.320776         1.236062        -0.169979
 H        -0.221241        -0.430841        -0.998073
 H         2.237529        -0.209991        -2.221419
 H         2.219066         1.482259        -1.954076
 H         4.539186         1.027391        -1.286312
 H         4.275932         1.361339         1.273455
 H         5.119620        -0.991327         0.299722
 H         1.561574        -1.988694        -1.139841
 H         1.077953        -1.884727         0.654805
