19
Iteration:  3783charge 0 multiplicity 1
 C         0.043081         0.340729        -0.186737
 C         1.522086        -0.003971        -0.134239
 C         2.312810         0.026805        -1.481214
 C         3.709544         0.271956        -0.998379
 C         3.576768         0.833730         0.465669
 O         2.218236         0.933626         0.786330
 C         4.059110        -0.580314         0.129657
 O         3.237931        -1.750485         0.505536
 C         1.823827        -1.365095         0.436842
 H        -0.389659         0.013966         0.744897
 H         0.027566         1.476833        -0.085444
 H        -0.535163         0.104108        -1.040181
 H         2.218369        -0.926532        -1.794666
 H         2.018732         0.775485        -2.223442
 H         4.558571         0.381792        -1.708677
 H         4.084130         1.574510         1.003410
 H         5.132001        -0.636028         0.419208
 H         1.127568        -2.122399        -0.254308
 H         1.318664        -1.480289         1.374626
