19
Iteration:  2762
 C         0.029674         0.282762        -0.266603
 C         1.542858        -0.032415        -0.171111
 C         2.445115         0.731923        -1.174423
 C         3.854392         0.651654        -0.565776
 C         3.478437         0.498470         0.962117
 O         2.081042         0.538831         1.091987
 C         4.018276        -0.675633         0.107722
 O         3.230916        -1.718044        -0.281045
 C         1.818507        -1.548345        -0.068282
 H        -0.197211         0.560138         0.783218
 H        -0.178114         1.146176        -0.998633
 H        -0.536108        -0.602820        -0.525835
 H         2.450648         0.390267        -2.157845
 H         2.075471         1.825053        -1.196856
 H         4.648686         1.263672        -1.076063
 H         4.026823         0.893400         1.850305
 H         5.035454        -1.063657         0.332816
 H         1.341133        -2.197135        -0.868631
 H         1.514417        -1.884514         0.871983
