19
Iteration:  2554
 C         0.041431         0.377474        -0.265512
 C         1.550127         0.026930        -0.121839
 C         2.448457         0.722640        -1.158161
 C         3.784342         0.705566        -0.386738
 C         3.463637         0.413048         1.040359
 O         2.052029         0.409648         1.241840
 C         4.088445        -0.684521         0.096996
 O         3.263364        -1.685716        -0.487123
 C         1.821205        -1.494777        -0.266263
 H        -0.540967         0.094290         0.631331
 H        -0.292098         1.379448        -0.663809
 H        -0.281992        -0.338310        -0.955162
 H         2.469312         0.109890        -2.099933
 H         2.250735         1.789401        -1.400092
 H         4.574834         1.373369        -0.687813
 H         3.914140         0.718776         1.972321
 H         5.090999        -1.188358         0.214350
 H         1.295167        -1.927798        -1.129733
 H         1.522797        -2.024795         0.652751
