19
Iteration:   133
 C         0.021315         0.478219        -0.210938
 C         1.533240         0.063770        -0.112574
 C         2.538357         1.293717         0.380528
 C         3.762725         0.500056         0.874400
 C         3.198026        -0.932789         1.122742
 O         1.805247        -0.910627         0.862491
 C         4.072778        -0.615072        -0.136073
 O         3.510885        -0.602933        -1.459844
 C         2.018830        -0.600239        -1.418230
 H         0.056336         1.527841        -0.337928
 H        -0.561293        -0.034584        -1.003890
 H        -0.474820         0.311086         0.803141
 H         2.912342         1.831816        -0.421796
 H         2.120511         1.918880         1.162187
 H         4.583783         1.079925         1.384387
 H         3.483652        -1.745051         1.810314
 H         5.148904        -1.066218        -0.092759
 H         1.719738         0.054935        -2.275086
 H         1.626127        -1.568348        -1.633617
