19
Iteration:  2770charge 0 multiplicity 1
 C         0.070812         0.271669        -0.190671
 C         1.540699        -0.060180        -0.187314
 C         2.460664         0.729382        -1.149584
 C         3.837144         0.706264        -0.584406
 C         3.488470         0.500519         0.891274
 O         2.038598         0.554125         1.043111
 C         4.061373        -0.697198         0.131951
 O         3.218586        -1.759994        -0.215663
 C         1.813900        -1.560460        -0.129480
 H        -0.386432         0.570480         0.724305
 H        -0.140685         1.220254        -0.684962
 H        -0.600130        -0.455274        -0.789180
 H         2.526539         0.509423        -2.175499
 H         2.241304         1.856382        -0.953346
 H         4.646110         1.308935        -1.003532
 H         3.962674         0.890582         1.819075
 H         5.067644        -0.916592         0.242297
 H         1.262841        -2.058490        -0.873820
 H         1.448344        -1.952494         0.946083
