19
Iteration:    70
 C         0.005945         0.317114        -0.159980
 C         1.544486         0.229476        -0.149733
 C         2.466130         1.294632         0.479757
 C         3.752089         0.482278         0.839150
 C         3.285331        -0.911243         1.062899
 O         1.836527        -0.979367         0.746992
 C         4.136188        -0.612996        -0.148703
 O         3.327437        -0.917727        -1.265599
 C         2.165349        -0.162687        -1.520786
 H        -0.385615        -0.468644        -0.745591
 H        -0.432702         0.224665         0.832627
 H        -0.365591         1.304190        -0.587576
 H         2.705046         2.028562        -0.298454
 H         2.007196         1.879788         1.314142
 H         4.518733         1.054329         1.426358
 H         3.517512        -1.651377         1.840903
 H         5.185774        -1.061457        -0.368673
 H         2.284499         0.679234        -2.211080
 H         1.490525        -0.940325        -1.898806
