19
Iteration:  1622
 C         0.136360         0.305793        -0.243251
 C         1.564613         0.084827        -0.070208
 C         2.426555         1.323376        -0.574662
 C         3.757262         0.788802        -0.123735
 C         3.411935        -0.015581         1.148673
 O         2.011670        -0.276983         1.200331
 C         3.983089        -0.674389         0.023485
 O         3.160177        -1.687706        -0.546593
 C         2.048385        -1.045543        -1.051247
 H        -0.350946        -0.438967         0.346497
 H        -0.140831         1.303262         0.218831
 H        -0.286156         0.294924        -1.246019
 H         2.382162         1.261256        -1.698898
 H         2.134912         2.248930        -0.144926
 H         4.673476         1.453625        -0.313050
 H         3.820090         0.024830         2.189265
 H         5.009586        -0.986992         0.047165
 H         2.186434        -0.686727        -2.252364
 H         1.297039        -1.909752        -1.037661
