19
Iteration:  4341charge 0 multiplicity 1
 C        -0.028682         0.283828        -0.248303
 C         1.569957         0.003520        -0.001132
 C         2.264743        -0.087634        -1.424854
 C         3.758295         0.157655        -1.006499
 C         3.544521         0.859579         0.377626
 O         2.220922         1.215091         0.492946
 C         4.032331        -0.630383         0.191097
 O         3.226113        -1.762500         0.470677
 C         1.921060        -1.396655         0.742245
 H        -0.858751        -0.311641         0.458565
 H        -0.175271         1.362157        -0.052316
 H        -0.283591         0.167188        -1.388419
 H         2.238808        -0.930865        -2.077348
 H         1.931857         0.869277        -1.934904
 H         4.350977         0.601912        -1.743060
 H         4.245291         1.536508         0.958703
 H         5.046122        -0.762275         0.561581
 H         1.180360        -2.176829         0.280129
 H         1.851203        -1.491942         1.833284
