19
Iteration:  2404charge 0 multiplicity 1
 C         0.039305         0.292057        -0.226276
 C         1.570384         0.073777        -0.168709
 C         2.443316         0.991918        -1.009683
 C         3.759302         0.756538        -0.413006
 C         3.509883         0.335705         1.024041
 O         2.080737         0.242263         1.242528
 C         4.057197        -0.693791         0.096946
 O         3.185182        -1.860558        -0.222110
 C         1.891088        -1.343207        -0.629951
 H        -0.589928        -0.488264        -0.800366
 H        -0.424568         0.289320         0.827353
 H        -0.206214         1.261049        -0.608547
 H         2.342832         0.518030        -2.101994
 H         2.012540         1.982097        -1.025617
 H         4.591767         1.423104        -0.662971
 H         4.041212         0.796314         1.885045
 H         5.146642        -0.987908         0.132294
 H         1.878761        -1.318391        -1.837050
 H         1.127346        -2.187692        -0.328014
