19
Iteration:   222
 C         0.077023         0.314922        -0.093496
 C         1.582793         0.184177        -0.112557
 C         2.496697         1.333228         0.250194
 C         3.730372         0.579955         0.734996
 C         3.193818        -0.863072         1.109436
 O         1.842102        -0.885086         0.826486
 C         4.034091        -0.636025        -0.120448
 O         3.420080        -0.903880        -1.311033
 C         2.113686        -0.404247        -1.401783
 H        -0.527239        -0.498005        -0.347673
 H        -0.306083         0.687819         0.854477
 H        -0.136628         1.171289        -0.898480
 H         2.825137         1.812104        -0.593670
 H         2.128987         2.088533         0.911740
 H         4.472409         1.060357         1.324618
 H         3.443780        -1.457642         1.985271
 H         5.045023        -0.955109        -0.125426
 H         2.057763         0.209888        -2.312212
 H         1.476980        -1.265670        -1.603341
