19
Iteration:  4250charge 0 multiplicity 1
 C         0.097660         0.325876        -0.054324
 C         1.551926         0.050880        -0.171230
 C         2.227315         0.170957        -1.569801
 C         3.666343        -0.005074        -1.053645
 C         3.568200         0.809064         0.295316
 O         2.191715         1.016690         0.628421
 C         4.001497        -0.575033         0.273574
 O         3.285334        -1.649676         0.816282
 C         1.917201        -1.494775         0.364258
 H        -0.022495         1.206355         0.741309
 H        -0.383792         0.729116        -1.089547
 H        -0.469970        -0.565779         0.078875
 H         1.877297        -0.728906        -2.149656
 H         2.024798         1.133643        -2.034699
 H         4.612499         0.177146        -1.634889
 H         3.985600         1.770966         0.493607
 H         5.021573        -0.821853         0.537760
 H         1.607508        -2.257904        -0.407430
 H         1.179873        -1.516969         1.231103
