19
Iteration:  2172
 C         0.052295         0.351179        -0.204164
 C         1.565369         0.002648        -0.157490
 C         2.447927         1.107280        -0.862962
 C         3.864502         0.737530        -0.235102
 C         3.383435         0.183780         1.111129
 O         1.971810         0.201739         1.175540
 C         4.080045        -0.737158         0.110656
 O         3.330816        -1.675276        -0.627403
 C         1.839409        -1.463799        -0.592073
 H        -0.407764        -0.481455        -0.652018
 H        -0.330038         0.424595         0.822036
 H        -0.299743         1.359082        -0.663584
 H         2.381240         1.080371        -2.117514
 H         2.107972         2.100543        -0.573255
 H         4.592413         1.549130        -0.444331
 H         3.844140         0.379945         2.118852
 H         5.108097        -1.071282         0.292575
 H         1.536869        -1.497716        -1.700400
 H         1.251298        -2.094322        -0.023460
