19
Iteration:  2152
 C         0.037656         0.291130        -0.238540
 C         1.588708         0.092154        -0.139437
 C         2.568236         0.963640        -0.934905
 C         3.780058         0.763370        -0.174270
 C         3.355691         0.150482         1.198823
 O         1.968922         0.173411         1.290169
 C         3.972628        -0.722543         0.036271
 O         3.281429        -1.583927        -0.777284
 C         1.945320        -1.359139        -0.545494
 H        -0.566945        -0.641107        -0.272711
 H        -0.273472         0.914510         0.646669
 H        -0.273048         1.001029        -1.074169
 H         2.564193         0.636044        -2.083511
 H         2.312375         2.008100        -1.067811
 H         4.662276         1.419180        -0.333452
 H         3.910288         0.244623         2.138026
 H         4.882194        -1.166594         0.252931
 H         1.448314        -1.823552        -1.418472
 H         1.765606        -1.815506         0.444259
