19
Iteration:   709
 C         0.045651         0.407380        -0.179553
 C         1.554177         0.103354        -0.175151
 C         2.485289         1.318388        -0.087513
 C         3.796551         0.732273         0.485865
 C         3.298703        -0.469401         1.235322
 O         1.917577        -0.639302         1.059900
 C         4.107725        -0.727803        -0.010147
 O         3.367834        -1.187735        -1.135774
 C         1.953114        -0.760315        -1.380321
 H        -0.285958         1.425333        -0.104851
 H        -0.475210        -0.098213        -0.965261
 H        -0.435037        -0.065319         0.709707
 H         2.582815         1.749515        -1.105322
 H         2.033927         2.057457         0.525604
 H         4.577114         1.360168         0.876204
 H         3.659393        -1.008852         2.076798
 H         5.078542        -1.287647         0.172546
 H         1.864206        -0.211416        -2.294418
 H         1.359913        -1.594453        -1.488725
