19
Iteration:  3438
 C         0.109899         0.395180        -0.232362
 C         1.518763        -0.012392        -0.160604
 C         2.282311         0.296864        -1.410880
 C         3.672331         0.414033        -0.948750
 C         3.600804         0.751208         0.557176
 O         2.226798         0.728978         0.959020
 C         4.057175        -0.593008         0.221462
 O         3.215621        -1.686802         0.491355
 C         1.787288        -1.570922         0.115734
 H        -0.052826         1.097968         0.602414
 H        -0.214042         0.889842        -1.185075
 H        -0.516435        -0.422257        -0.026273
 H         2.268487        -0.482711        -2.289589
 H         2.034308         1.152634        -1.935476
 H         4.461231         0.709694        -1.625826
 H         4.204629         1.607814         1.059903
 H         5.091327        -0.886505         0.265071
 H         1.585264        -2.199275        -0.833283
 H         1.139339        -1.940468         0.957837
