19
Iteration:  4610charge 0 multiplicity 1
 C         0.087924         0.225617        -0.096794
 C         1.546850        -0.023887        -0.116983
 C         2.172969        -0.096867        -1.563756
 C         3.640000         0.024547        -1.130023
 C         3.678834         0.899744         0.219002
 O         2.262389         1.101876         0.485826
 C         4.046644        -0.581097         0.266441
 O         3.202922        -1.537693         0.928146
 C         1.853690        -1.356168         0.554509
 H         0.003662         1.141472         0.495808
 H        -0.322849         0.678859        -1.072710
 H        -0.481977        -0.594959         0.304385
 H         2.005393        -1.074139        -2.039234
 H         1.917146         0.611864        -2.302855
 H         4.476916        -0.030591        -1.809930
 H         4.221508         1.840689         0.480628
 H         5.062362        -0.832980         0.549397
 H         1.587376        -2.059239        -0.300957
 H         1.188172        -1.420778         1.374785
