19
Iteration:   420
 C         0.006186         0.380765        -0.260825
 C         1.531860         0.109734        -0.118060
 C         2.482112         1.338040         0.130586
 C         3.792132         0.649541         0.596410
 C         3.271084        -0.716205         1.146852
 O         1.837501        -0.681643         1.083307
 C         4.099019        -0.700880        -0.116601
 O         3.416938        -1.054907        -1.334705
 C         2.044712        -0.615013        -1.324295
 H        -0.428062         0.380405        -1.251264
 H        -0.459707        -0.427014         0.275360
 H        -0.267639         1.170856         0.448313
 H         2.741762         1.951251        -0.683511
 H         2.089611         1.956803         0.903938
 H         4.606792         1.157156         1.139821
 H         3.640970        -1.152632         2.030509
 H         5.193424        -1.040425        -0.011846
 H         2.087942         0.254192        -2.071232
 H         1.414325        -1.478853        -1.564546
