19
Iteration:  4426charge 0 multiplicity 1
 C         0.141082         0.366070        -0.226539
 C         1.552004        -0.024359        -0.077448
 C         2.168929         0.002020        -1.526685
 C         3.569944        -0.025652        -1.109257
 C         3.580974         0.820837         0.263141
 O         2.212867         1.086958         0.675987
 C         4.065256        -0.568384         0.266112
 O         3.336213        -1.568456         0.849868
 C         1.837043        -1.459405         0.443266
 H        -0.462708        -0.489184        -0.557888
 H        -0.213670         0.841345         0.681685
 H        -0.070837         1.035519        -0.975021
 H         1.883011        -0.898149        -2.129582
 H         1.742740         0.857633        -2.148119
 H         4.367111         0.247712        -1.732822
 H         4.240377         1.728325         0.496757
 H         5.122657        -0.777780         0.405283
 H         1.624114        -2.054360        -0.419731
 H         1.425968        -1.734986         1.472078
