19
Iteration:  4039charge 0 multiplicity 1
 C        -0.004367         0.418865        -0.041151
 C         1.543935        -0.018150        -0.102389
 C         2.269612        -0.081878        -1.520441
 C         3.749693         0.176432        -1.103899
 C         3.626177         0.873852         0.286043
 O         2.238236         0.894554         0.633856
 C         4.105668        -0.573212         0.219134
 O         3.158495        -1.555138         0.781094
 C         1.835757        -1.416085         0.417513
 H        -0.470161         0.698004         0.927465
 H        -0.240022         1.257766        -0.714571
 H        -0.593409        -0.523674        -0.540835
 H         2.070653        -1.118969        -1.856279
 H         2.056665         0.619659        -2.275462
 H         4.507470         0.672157        -1.787931
 H         4.173126         1.689929         0.619274
 H         5.140540        -1.037903         0.272415
 H         1.625495        -2.057394        -0.439251
 H         1.289503        -1.802636         1.191866
