19
Iteration:  1148
 C         0.141909         0.401332        -0.336480
 C         1.564231         0.100373        -0.027255
 C         2.589684         1.124714        -0.413525
 C         3.786009         0.740458         0.301372
 C         3.268048        -0.319190         1.223514
 O         1.858569        -0.293572         1.326983
 C         4.004988        -0.722446        -0.087188
 O         3.336939        -1.072817        -1.290759
 C         1.944177        -1.241191        -0.882262
 H         0.081944         1.277592        -1.072322
 H        -0.427364        -0.369498        -0.796729
 H        -0.465932         0.711265         0.545150
 H         2.784210         1.286022        -1.502126
 H         2.163324         2.089391        -0.069683
 H         4.536523         1.488491         0.467512
 H         3.774815        -0.478286         2.236435
 H         4.988550        -1.206406         0.178535
 H         1.424091        -1.397085        -1.820401
 H         1.837427        -2.192644        -0.228815
