19
Iteration:  2418charge 0 multiplicity 1
 C         0.035973         0.389003        -0.159664
 C         1.506516         0.021611        -0.183543
 C         2.372286         0.996012        -1.029586
 C         3.772986         0.688895        -0.392466
 C         3.477065         0.356693         1.035217
 O         2.044130         0.237023         1.109946
 C         4.079550        -0.738757         0.018472
 O         3.252048        -1.790914        -0.116652
 C         1.934572        -1.436186        -0.625863
 H        -0.417762        -0.133622        -1.028416
 H        -0.305475        -0.035802         0.759510
 H        -0.166528         1.471513        -0.159848
 H         2.336334         1.067192        -2.124935
 H         2.243478         2.063512        -0.547571
 H         4.657988         1.267772        -0.663967
 H         3.882034         0.784626         1.918473
 H         5.066004        -1.047542         0.020151
 H         1.993076        -1.372969        -1.798506
 H         1.241557        -2.181996        -0.335573
