19
Iteration:  4072charge 0 multiplicity 1
 C         0.163705         0.381188        -0.160603
 C         1.539239        -0.138217        -0.163003
 C         2.243208         0.071116        -1.553600
 C         3.679502         0.135147        -1.097932
 C         3.565203         0.872369         0.246857
 O         2.174118         0.916640         0.675429
 C         4.032628        -0.556837         0.195101
 O         3.232359        -1.638226         0.766271
 C         1.876402        -1.406426         0.620947
 H        -0.532706         0.034175         0.617941
 H         0.308602         1.473068        -0.099585
 H        -0.293556         0.196411        -1.251426
 H         1.874896        -0.762086        -2.208032
 H         1.883580         0.972955        -2.005496
 H         4.367889         0.448988        -1.921388
 H         4.170780         1.649685         0.606858
 H         5.110693        -0.913357         0.261381
 H         1.419240        -2.281729         0.236545
 H         1.412587        -1.196842         1.534169
