19
Iteration:   328
 C         0.052013         0.395638        -0.130257
 C         1.565498         0.144988        -0.144131
 C         2.560657         1.271236         0.100288
 C         3.799533         0.602426         0.705630
 C         3.180365        -0.743384         1.164054
 O         1.792400        -0.791493         0.991789
 C         4.053404        -0.700493        -0.064411
 O         3.436543        -0.809923        -1.376951
 C         2.048248        -0.642369        -1.399865
 H        -0.159792         0.534239         0.911478
 H        -0.303097         1.184597        -0.801163
 H        -0.374007        -0.578981        -0.522310
 H         2.768413         1.811622        -0.873219
 H         2.217737         2.083665         0.836787
 H         4.499304         1.127387         1.297334
 H         3.555400        -1.201900         2.061218
 H         4.991899        -1.188641        -0.039012
 H         1.781037        -0.044684        -2.253713
 H         1.658613        -1.695241        -1.390595
