19
Iteration:  2433charge 0 multiplicity 1
 C         0.047524         0.370951        -0.120748
 C         1.564377         0.004589        -0.274460
 C         2.420764         1.075378        -0.965593
 C         3.787811         0.694166        -0.525962
 C         3.448984         0.328925         0.969971
 O         2.055282         0.183402         1.107748
 C         4.048260        -0.654558         0.160000
 O         3.201057        -1.800054        -0.092103
 C         1.930599        -1.472458        -0.672037
 H        -0.463077         0.594186        -1.024977
 H        -0.549540        -0.335245         0.508792
 H         0.143116         1.393190         0.351511
 H         2.206018         0.987793        -2.009659
 H         2.047157         2.079131        -0.700584
 H         4.579960         1.402791        -0.817158
 H         3.995175         0.751037         1.852064
 H         5.154837        -0.917885         0.313846
 H         1.913073        -1.759234        -1.643297
 H         1.309735        -2.147670        -0.056925
