19
Iteration:    51charge 0 multiplicity 1
 C         0.133668         0.362722        -0.195373
 C         1.640180         0.135102        -0.080371
 C         2.434542         1.275482         0.516630
 C         3.705139         0.537109         0.775535
 C         3.216313        -0.893116         1.106376
 O         1.910034        -0.993273         0.720337
 C         4.001464        -0.661627        -0.128440
 O         3.352786        -0.904022        -1.383055
 C         2.081426        -0.161247        -1.443035
 H        -0.331252        -0.749744        -0.122511
 H        -0.347864         1.028927         0.535894
 H         0.015595         0.852654        -1.172524
 H         2.426559         2.265551        -0.061692
 H         1.968563         1.534691         1.498834
 H         4.527496         0.877526         1.373464
 H         3.552784        -1.322293         2.016471
 H         5.027368        -0.860211        -0.206804
 H         2.396399         0.774273        -1.962246
 H         1.421985        -0.846945        -2.079646
