19
Iteration:  3385
 C         0.060815         0.285466        -0.168115
 C         1.526531         0.010738        -0.190434
 C         2.291529         0.420997        -1.433369
 C         3.765699         0.372039        -0.850206
 C         3.523480         0.708680         0.659971
 O         2.146775         0.853605         0.813821
 C         4.053111        -0.663479         0.190881
 O         3.268100        -1.878152         0.329282
 C         1.869273        -1.428286         0.206497
 H        -0.269055         1.176181        -0.790315
 H        -0.523184        -0.475032        -0.617477
 H        -0.208604         0.581477         0.830904
 H         2.066152        -0.177586        -2.383530
 H         2.186753         1.510193        -1.730634
 H         4.546499         0.874354        -1.397804
 H         4.061341         1.443885         1.377401
 H         5.032177        -1.017296         0.455125
 H         1.413298        -2.095597        -0.458856
 H         1.395912        -1.534887         1.323867
