19
Iteration:  4620charge 0 multiplicity 1
 C         0.026454         0.335272        -0.023144
 C         1.526936        -0.023966        -0.192890
 C         2.235952        -0.133333        -1.596582
 C         3.719294         0.060737        -1.142913
 C         3.653426         0.839527         0.195267
 O         2.262148         1.015334         0.507926
 C         4.050065        -0.556283         0.238093
 O         3.179201        -1.448437         0.974501
 C         1.843175        -1.378799         0.558029
 H        -0.267817         0.973649         0.774948
 H        -0.277782         0.521622        -1.114091
 H        -0.521956        -0.604281         0.098997
 H         2.027342        -1.089410        -2.115655
 H         1.936492         0.673533        -2.186628
 H         4.564173         0.257203        -1.772147
 H         4.297656         1.738504         0.446394
 H         5.040907        -0.960921         0.210361
 H         1.614805        -2.335033        -0.102401
 H         1.285924        -1.568633         1.503261
