19
Iteration:  4804
 C         0.060643         0.339137        -0.124593
 C         1.544593        -0.140205        -0.184633
 C         2.256274        -0.145453        -1.525744
 C         3.638898         0.215605        -1.172653
 C         3.680894         0.835019         0.201527
 O         2.312874         0.935131         0.524000
 C         4.034886        -0.630189         0.141652
 O         3.203961        -1.432283         0.939461
 C         1.765774        -1.326799         0.708211
 H        -0.292072         0.615937         0.781803
 H        -0.055699         1.073102        -0.999478
 H        -0.571671        -0.457278        -0.528235
 H         2.103686        -1.155362        -2.076320
 H         1.774473         0.594085        -2.190231
 H         4.390668         0.346545        -2.015465
 H         4.189739         1.636503         0.654580
 H         5.136136        -0.734890         0.352199
 H         1.428786        -2.210649         0.287277
 H         1.271417        -1.132269         1.683734
