19
Iteration:   651
 C         0.020124         0.302104        -0.235574
 C         1.616932         0.082324        -0.117397
 C         2.455898         1.363981         0.062467
 C         3.707934         0.737195         0.449261
 C         3.346285        -0.450380         1.230711
 O         1.983852        -0.633101         1.020944
 C         4.068848        -0.741426        -0.065918
 O         3.179901        -1.369493        -1.096190
 C         2.101692        -0.529976        -1.408103
 H        -0.260490         0.067599        -1.255855
 H        -0.418558        -0.620182         0.373106
 H        -0.173122         1.225037         0.201450
 H         2.536972         1.961916        -0.892339
 H         2.078370         2.008739         0.941784
 H         4.658905         1.300336         0.510438
 H         3.592348        -0.702684         2.280252
 H         5.044347        -1.142614        -0.165498
 H         2.491615         0.267448        -1.966777
 H         1.428837        -1.158267        -1.955339
