19
Iteration:  2611
 C        -0.115710         0.348477        -0.150492
 C         1.547532         0.014091        -0.279950
 C         2.391268         0.975272        -1.096744
 C         3.772774         0.697768        -0.561316
 C         3.517660         0.365300         0.927454
 O         2.114245         0.361388         1.097848
 C         4.048486        -0.710951         0.119435
 O         3.283920        -1.844555        -0.011077
 C         1.925119        -1.426449        -0.455554
 H        -0.737492        -0.583574        -0.372441
 H        -0.208215         0.660040         0.939158
 H        -0.214023         1.132288        -0.863384
 H         2.263633         0.603559        -2.248779
 H         2.136987         1.971251        -0.962186
 H         4.747908         1.095881        -0.878633
 H         3.960284         0.867293         1.801408
 H         5.055863        -0.961667         0.219209
 H         1.752112        -1.831656        -1.433550
 H         1.248920        -2.029366         0.258133
