19
Iteration:  2772charge 0 multiplicity 1
 C         0.078454         0.267745        -0.171057
 C         1.537153        -0.062052        -0.188941
 C         2.471926         0.732028        -1.156048
 C         3.825681         0.708518        -0.572257
 C         3.493411         0.495448         0.859682
 O         2.028723         0.555635         1.028232
 C         4.070694        -0.677912         0.141165
 O         3.214410        -1.790337        -0.196850
 C         1.816612        -1.554214        -0.132944
 H        -0.462279         0.476923         0.766633
 H        -0.088654         1.310734        -0.659655
 H        -0.565619        -0.369989        -0.795570
 H         2.464601         0.551313        -2.125829
 H         2.208347         1.876175        -0.930894
 H         4.673831         1.343977        -0.966844
 H         3.958600         0.915859         1.799020
 H         5.125793        -0.920918         0.240549
 H         1.238082        -2.056245        -0.949373
 H         1.449867        -1.930095         0.836819
