19
Iteration:  1911charge 0 multiplicity 1
 C         0.131865         0.313261        -0.190784
 C         1.577859         0.064890        -0.101065
 C         2.545372         1.095485        -0.826469
 C         3.812140         0.751497        -0.082862
 C         3.283107         0.071135         1.245074
 O         1.915047         0.039122         1.249074
 C         4.020299        -0.764799         0.087053
 O         3.331625        -1.511254        -0.993678
 C         1.900250        -1.289465        -0.628225
 H        -0.478681        -0.596081        -0.054893
 H        -0.123159         1.061745         0.615244
 H        -0.267293         0.708450        -1.199939
 H         2.524300         0.844746        -1.917222
 H         2.282476         2.185919        -0.646067
 H         4.648903         1.427788        -0.164543
 H         3.638427         0.079953         2.217007
 H         5.059253        -1.096718         0.239388
 H         1.358610        -1.534676        -1.478352
 H         1.578109        -2.076019         0.130267
