19
Iteration:   761
 C         0.073701         0.481065        -0.200242
 C         1.580823         0.019076        -0.149363
 C         2.588430         1.226862        -0.192494
 C         3.776881         0.709597         0.494594
 C         3.218137        -0.575138         1.200013
 O         1.805722        -0.525851         1.209948
 C         3.993255        -0.713416        -0.087367
 O         3.421258        -0.841657        -1.334985
 C         2.066320        -1.098538        -1.150983
 H        -0.202150         0.725668         0.800878
 H        -0.084877         1.504369        -0.811562
 H        -0.705965        -0.112905        -0.615387
 H         2.712100         1.606424        -1.270556
 H         2.033854         1.994277         0.432458
 H         4.518783         1.236852         1.063707
 H         3.655016        -0.862153         2.111221
 H         4.985755        -1.270526        -0.022074
 H         1.531819        -1.068244        -2.149837
 H         1.771553        -2.115564        -0.661913
