19
Iteration:   531
 C         0.090089         0.402135        -0.232722
 C         1.560404         0.101110        -0.081055
 C         2.534665         1.330449         0.039952
 C         3.820255         0.663117         0.591521
 C         3.233348        -0.676407         1.196748
 O         1.823468        -0.632463         1.113756
 C         3.985481        -0.670735        -0.108318
 O         3.440101        -0.970307        -1.389236
 C         2.014654        -0.820013        -1.289134
 H        -0.402705         0.441351         0.780494
 H        -0.121706         1.327058        -0.918713
 H        -0.325221        -0.456877        -0.710714
 H         2.634484         1.907506        -0.883251
 H         2.118222         1.966023         0.845269
 H         4.670770         1.226812         0.976052
 H         3.477836        -1.144710         2.211772
 H         4.971470        -1.047972        -0.093738
 H         1.757794        -0.385375        -2.321089
 H         1.553059        -1.799499        -1.038067
