19
Iteration:  1246
 C         0.024447         0.375697        -0.063255
 C         1.519887         0.104211        -0.233380
 C         2.490262         1.332951        -0.432008
 C         3.771380         0.841030         0.128000
 C         3.379241        -0.181070         1.199896
 O         1.948423        -0.377590         1.089244
 C         4.081031        -0.732918        -0.002442
 O         3.250180        -1.625939        -0.702653
 C         2.050148        -0.974744        -1.227852
 H        -0.422485        -0.257117         0.794136
 H        -0.275699         1.397270        -0.065067
 H        -0.623783        -0.026977        -0.896187
 H         2.346395         1.569426        -1.496174
 H         2.231035         2.237469         0.189767
 H         4.602672         1.538988         0.012423
 H         3.693451        -0.055124         2.201331
 H         5.097783        -0.974215         0.002762
 H         2.410985        -0.465011        -2.076313
 H         1.381355        -1.758455        -1.414364
