19
Iteration:  1399charge 0 multiplicity 1
 C         0.052852         0.293436        -0.347304
 C         1.556011         0.084701        -0.118359
 C         2.467852         1.277816        -0.542982
 C         3.822159         0.806915         0.082890
 C         3.429450        -0.109126         1.234599
 O         2.039379        -0.240846         1.268597
 C         3.979897        -0.672413        -0.026006
 O         3.275913        -1.539954        -0.831756
 C         1.871885        -1.142923        -0.958971
 H        -0.198931         1.225756        -0.860353
 H        -0.384828        -0.470068        -0.916250
 H        -0.396076         0.575785         0.591344
 H         2.481074         1.607967        -1.571346
 H         2.194461         2.173042         0.146018
 H         4.694910         1.504446         0.160075
 H         3.935235        -0.125991         2.247913
 H         5.055816        -0.975860         0.024504
 H         1.599511        -1.138732        -2.062311
 H         1.232348        -2.003574        -0.767583
