19
Iteration:  3876
 C        -0.000483         0.176162        -0.184627
 C         1.558472         0.010013        -0.100525
 C         2.306826         0.229776        -1.492540
 C         3.730320         0.157833        -1.042846
 C         3.656078         0.811798         0.357780
 O         2.290954         0.995408         0.676502
 C         3.989632        -0.616855         0.185744
 O         3.170227        -1.645137         0.681696
 C         1.826433        -1.403430         0.468403
 H        -0.433355        -0.045839        -1.171407
 H        -0.492420        -0.482613         0.497578
 H        -0.272636         1.227539         0.193147
 H         2.111254        -0.779434        -2.089092
 H         2.034382         1.165753        -2.012032
 H         4.547093         0.363731        -1.731829
 H         4.359972         1.646213         0.616006
 H         4.962929        -1.023475         0.198845
 H         1.100679        -2.166613        -0.134825
 H         1.324337        -1.507527         1.495285
