19
Iteration:  4963charge 0 multiplicity 1
 C         0.061410         0.295428        -0.170071
 C         1.519669        -0.037813        -0.108613
 C         2.268692        -0.154554        -1.503993
 C         3.732009         0.169142        -1.014905
 C         3.623493         0.884392         0.262366
 O         2.212331         1.038057         0.520637
 C         4.052395        -0.610926         0.228497
 O         3.190652        -1.687654         0.556062
 C         1.840941        -1.209633         0.752441
 H        -0.276500         0.941033        -1.074518
 H        -0.556348        -0.587610        -0.171994
 H        -0.292042         0.844667         0.810200
 H         2.248280        -1.183437        -1.909753
 H         1.926446         0.547460        -2.332714
 H         4.612032         0.188931        -1.693491
 H         4.030743         1.787148         0.632337
 H         5.081804        -0.886773         0.603107
 H         1.206668        -2.107770         0.614207
 H         1.811619        -0.799335         1.821962
