19
Iteration:  3372
 C         0.073986         0.288055        -0.175422
 C         1.578449         0.018668        -0.128428
 C         2.406724         0.440230        -1.388344
 C         3.758823         0.384845        -0.835519
 C         3.485296         0.685365         0.579901
 O         2.098024         0.916785         0.805395
 C         4.010343        -0.713904         0.252071
 O         3.232926        -1.822108         0.190501
 C         1.854856        -1.495561         0.283388
 H        -0.122502         0.886703        -1.028652
 H        -0.428586        -0.697241        -0.082788
 H        -0.214600         0.721168         0.714410
 H         2.249727        -0.287615        -2.300831
 H         2.060433         1.410964        -1.609128
 H         4.592557         0.796889        -1.368320
 H         4.141726         1.328370         1.137570
 H         5.097771        -0.733780         0.502658
 H         1.310951        -2.098208        -0.419510
 H         1.416076        -1.760857         1.345372
