19
Iteration:  4275charge 0 multiplicity 1
 C         0.008158         0.346637        -0.102141
 C         1.489968        -0.080014        -0.142390
 C         2.281069        -0.045613        -1.407000
 C         3.757847         0.206973        -1.049118
 C         3.682553         0.897436         0.317081
 O         2.247935         1.005293         0.588582
 C         4.090085        -0.551178         0.161325
 O         3.190664        -1.646395         0.715843
 C         1.784747        -1.464908         0.463746
 H        -0.171334         1.064666         0.854119
 H        -0.265530         0.925860        -1.030756
 H        -0.659933        -0.536800        -0.203813
 H         2.118531        -0.970428        -1.915969
 H         1.957187         0.839337        -2.051536
 H         4.395800         0.698931        -1.800008
 H         4.207609         1.671849         0.831385
 H         5.086232        -0.927266         0.504520
 H         1.462111        -2.244858        -0.337873
 H         1.146494        -1.593620         1.267992
