19
Iteration:   956
 C         0.091148         0.539564        -0.194177
 C         1.529052        -0.021404        -0.106048
 C         2.555571         1.133055        -0.380371
 C         3.813652         0.773834         0.496341
 C         3.287518        -0.433542         1.233373
 O         1.828486        -0.464896         1.158649
 C         4.036720        -0.694938        -0.042584
 O         3.365639        -0.973491        -1.287511
 C         2.012213        -1.152597        -1.038114
 H         0.161208         1.586950         0.206796
 H        -0.513893         0.544397        -1.292616
 H        -0.723687         0.123398         0.497620
 H         2.770295         1.359832        -1.454218
 H         1.967994         2.058747        -0.126980
 H         4.597804         1.463865         0.754800
 H         3.726845        -0.835633         2.220030
 H         4.982049        -1.259667         0.042992
 H         1.560097        -1.301084        -2.040436
 H         1.871146        -2.103154        -0.516913
