19
Iteration:  1817charge 0 multiplicity 1
 C         0.033406         0.336000        -0.053062
 C         1.535895         0.093024        -0.250595
 C         2.468590         1.141988        -0.742572
 C         3.817780         0.819518        -0.068492
 C         3.381937         0.042702         1.133443
 O         1.985426        -0.120878         1.197627
 C         4.080489        -0.701786         0.033937
 O         3.188824        -1.687979        -0.510958
 C         2.022900        -1.149395        -1.052556
 H        -0.049718         1.255437         0.505143
 H        -0.590421         0.441800        -0.959009
 H        -0.449197        -0.393320         0.570884
 H         2.609733         1.170325        -1.793537
 H         2.177144         2.119195        -0.359575
 H         4.588590         1.544716        -0.048008
 H         3.746500         0.100777         2.129026
 H         5.121376        -1.144995         0.109483
 H         2.091896        -0.868617        -2.179786
 H         1.289244        -1.927277        -1.090252
