19
Iteration:  2081charge 0 multiplicity 1
 C         0.062683         0.391436        -0.187768
 C         1.528703         0.088975        -0.133910
 C         2.429718         1.115114        -0.797147
 C         3.786136         0.790891        -0.209422
 C         3.404942         0.127308         1.130577
 O         1.992338         0.032700         1.152332
 C         4.047861        -0.680079         0.026410
 O         3.335880        -1.738658        -0.580148
 C         1.898593        -1.363136        -0.690044
 H        -0.319822         0.967238         0.692903
 H        -0.099788         0.915332        -1.120056
 H        -0.529311        -0.468699        -0.299434
 H         2.373527         1.160825        -1.902726
 H         2.241978         2.202770        -0.544308
 H         4.560445         1.544567        -0.258337
 H         3.832126         0.255920         2.078015
 H         5.089362        -0.999138         0.232082
 H         1.638416        -1.474118        -1.722643
 H         1.477254        -2.110847        -0.105328
