19
Iteration:  1412charge 0 multiplicity 1
 C        -0.002416         0.329307        -0.285147
 C         1.580853         0.066886        -0.224112
 C         2.458655         1.314703        -0.394781
 C         3.804357         0.869664         0.069928
 C         3.462989        -0.087255         1.186001
 O         2.013522        -0.185453         1.183448
 C         4.075139        -0.720975        -0.031107
 O         3.212108        -1.628827        -0.727413
 C         1.935723        -1.169850        -1.035628
 H        -0.185362         1.251336        -0.794334
 H        -0.470783        -0.509696        -0.879640
 H        -0.533671         0.162198         0.691830
 H         2.500251         1.714209        -1.500754
 H         1.926376         2.063996         0.268436
 H         4.677260         1.467081        -0.016547
 H         3.877410        -0.156151         2.204589
 H         5.156261        -1.156986        -0.040572
 H         1.846736        -0.799477        -2.090193
 H         1.231290        -1.895802        -0.694201
