19
Iteration:  3399
 C        -0.018772         0.317101        -0.188661
 C         1.534622        -0.014546        -0.215453
 C         2.372724         0.408133        -1.489619
 C         3.751638         0.417294        -0.904177
 C         3.600247         0.670416         0.643721
 O         2.173565         0.793643         0.911833
 C         4.062587        -0.629610         0.193812
 O         3.228196        -1.762996         0.412384
 C         1.808200        -1.478894         0.176432
 H        -0.096160         1.445730        -0.391708
 H        -0.593969        -0.341443        -0.852042
 H        -0.444394        -0.003566         0.865820
 H         2.244434        -0.351097        -2.199061
 H         1.902506         1.457604        -1.819106
 H         4.602385         0.707602        -1.557373
 H         4.249062         1.392578         1.184536
 H         5.130345        -0.813961         0.250642
 H         1.411045        -2.280021        -0.545119
 H         1.256247        -1.610111         1.170536
