19
Iteration:   591
 C         0.111463         0.503920        -0.137995
 C         1.579495         0.072210        -0.193753
 C         2.525819         1.278617        -0.070008
 C         3.741770         0.694285         0.587080
 C         3.213865        -0.632261         1.248457
 O         1.811413        -0.665896         1.150920
 C         4.019735        -0.672452        -0.069479
 O         3.456034        -0.952487        -1.374105
 C         2.069048        -0.913127        -1.325036
 H        -0.545727        -0.380482        -0.013441
 H        -0.045586         1.078346         0.717592
 H        -0.424500         1.008838        -1.038917
 H         2.737314         1.752468        -1.026810
 H         2.096219         2.050172         0.606783
 H         4.527216         1.337070         0.988225
 H         3.495589        -0.899481         2.214431
 H         5.062538        -1.147445        -0.079497
 H         1.651116        -0.672087        -2.348175
 H         1.452536        -1.863561        -1.076112
