19
Iteration:   266charge 0 multiplicity 1
 C         0.075220         0.433459        -0.130401
 C         1.542741         0.111105        -0.109190
 C         2.380045         1.286258         0.352869
 C         3.686987         0.584789         0.577292
 C         3.282551        -0.734583         1.105996
 O         1.874303        -0.829997         0.909769
 C         4.031310        -0.659715        -0.128353
 O         3.416373        -1.098180        -1.260199
 C         2.197421        -0.402641        -1.478471
 H        -0.105451         0.932393        -1.059207
 H        -0.541884        -0.460495        -0.160122
 H        -0.325360         1.200917         0.677644
 H         2.328764         2.084053        -0.291422
 H         2.064231         1.617701         1.322634
 H         4.465646         1.264423         0.912443
 H         3.694369        -1.277090         1.996603
 H         5.026976        -0.962655        -0.084120
 H         2.281531         0.485299        -2.190726
 H         1.522755        -1.128845        -1.952940
