19
Iteration:  4836
 C         0.056844         0.331508        -0.083093
 C         1.542811         0.028145        -0.160129
 C         2.244265        -0.066986        -1.515045
 C         3.679317        -0.086180        -1.109513
 C         3.614190         0.889025         0.111846
 O         2.249382         1.010064         0.575699
 C         4.042177        -0.597234         0.228448
 O         3.246312        -1.470108         0.949099
 C         1.846848        -1.360616         0.525747
 H        -0.331931         1.038085         0.569454
 H        -0.283847         0.535440        -1.183605
 H        -0.451980        -0.652582         0.132538
 H         1.801711        -0.985968        -2.030061
 H         1.994578         0.854240        -2.057391
 H         4.377129        -0.083335        -2.019951
 H         4.163972         1.751078         0.346787
 H         5.131338        -0.570434         0.537089
 H         1.558805        -2.260353        -0.220822
 H         1.221086        -1.526845         1.444459
