19
Iteration:  3707
 C         0.043467         0.337008        -0.183710
 C         1.524380        -0.004195        -0.096364
 C         2.347835         0.138596        -1.423567
 C         3.773545         0.354637        -0.968681
 C         3.522932         0.747906         0.452667
 O         2.130465         0.977074         0.705206
 C         4.070909        -0.671110         0.205415
 O         3.253884        -1.833234         0.321570
 C         1.837622        -1.359417         0.562801
 H        -0.220018         1.228929         0.347804
 H        -0.276621         0.448372        -1.277626
 H        -0.512024        -0.436247         0.254831
 H         2.263889        -0.813431        -1.912496
 H         2.088015         1.015043        -2.132522
 H         4.540514         0.899147        -1.549458
 H         4.123462         1.516615         0.970570
 H         5.107657        -0.938052         0.456538
 H         1.067914        -2.101384         0.114127
 H         1.642556        -1.267079         1.594591
