19
Iteration:  3972charge 0 multiplicity 1
 C        -0.042699         0.240183        -0.258219
 C         1.509194        -0.065334        -0.124434
 C         2.305423         0.059654        -1.503475
 C         3.754464         0.171553        -1.100747
 C         3.639635         0.807393         0.402541
 O         2.249197         1.047110         0.672341
 C         4.069434        -0.624517         0.160796
 O         3.189847        -1.714619         0.575205
 C         1.857305        -1.274282         0.697844
 H        -0.225635         1.327047         0.095878
 H        -0.504356         0.202008        -1.217132
 H        -0.601758        -0.538884         0.370070
 H         2.217676        -0.753209        -2.150256
 H         1.831553         0.932480        -1.908943
 H         4.483907         0.680032        -1.758383
 H         4.190137         1.663513         0.886710
 H         5.036609        -1.042285         0.200793
 H         1.237359        -2.169380         0.415079
 H         1.624529        -1.017833         1.696225
