19
Iteration:  1740charge 0 multiplicity 1
 C         0.155595         0.470606        -0.305611
 C         1.578526         0.028547        -0.146628
 C         2.498005         1.053293        -0.701138
 C         3.751560         0.787396         0.030998
 C         3.344719        -0.010187         1.232096
 O         1.894312        -0.056542         1.354365
 C         3.969050        -0.700669        -0.034890
 O         3.330556        -1.448097        -1.034207
 C         1.972613        -1.362958        -0.682721
 H        -0.012778         1.166670        -1.059418
 H        -0.616355        -0.339699        -0.515286
 H        -0.231867         0.919801         0.635134
 H         2.622665         0.901639        -1.717153
 H         2.192219         2.097404        -0.482154
 H         4.600369         1.522073         0.017323
 H         3.797876        -0.112521         2.196899
 H         4.908472        -1.226299         0.208525
 H         1.364045        -1.767504        -1.560990
 H         1.952211        -1.926708         0.308129
