19
Iteration:  4346charge 0 multiplicity 1
 C        -0.010515         0.270001        -0.224744
 C         1.550049        -0.028691        -0.027388
 C         2.293050        -0.085263        -1.438491
 C         3.735643         0.172234        -1.029269
 C         3.562259         0.848369         0.399438
 O         2.218854         1.249355         0.507348
 C         4.044250        -0.604484         0.200743
 O         3.242344        -1.793314         0.476605
 C         1.868039        -1.367796         0.696569
 H        -0.551984        -0.304254         0.375636
 H        -0.316975         1.287160         0.060231
 H        -0.264895         0.229319        -1.276882
 H         2.001978        -1.079841        -1.963651
 H         1.945380         0.775161        -1.971091
 H         4.495454         0.553732        -1.795403
 H         4.194342         1.556394         0.895195
 H         5.005395        -0.807977         0.690359
 H         1.218206        -2.130347         0.387044
 H         1.807036        -1.442903         1.807463
