19
Iteration:  1808charge 0 multiplicity 1
 C         0.093024         0.293876        -0.055091
 C         1.567249         0.101990        -0.170808
 C         2.495795         1.251177        -0.781185
 C         3.765395         0.793576        -0.056162
 C         3.390398         0.042287         1.199103
 O         1.999800        -0.141352         1.173576
 C         4.021150        -0.705722         0.072135
 O         3.182223        -1.658927        -0.571017
 C         1.963019        -1.180595        -1.081314
 H        -0.192585         1.398606         0.161225
 H        -0.328894         0.084049        -1.071816
 H        -0.375871        -0.346847         0.670010
 H         2.583932         1.078118        -1.894399
 H         2.277668         2.238543        -0.517382
 H         4.623179         1.414582        -0.016759
 H         3.977416         0.161773         2.125365
 H         5.099331        -1.057622         0.164214
 H         2.047024        -0.983370        -2.116053
 H         1.236365        -1.999159        -0.793195
