19
Iteration:  2569charge 0 multiplicity 1
 C         0.148032         0.294124        -0.246268
 C         1.582175         0.011421        -0.122334
 C         2.446470         0.749215        -1.149819
 C         3.806292         0.706057        -0.516519
 C         3.455487         0.417800         1.061888
 O         2.062680         0.343303         1.217548
 C         3.975239        -0.630049         0.184158
 O         3.212844        -1.711791        -0.403953
 C         1.833281        -1.433037        -0.329368
 H        -0.470610        -0.154693         0.626595
 H         0.108744         1.401700        -0.006526
 H        -0.391709         0.089254        -1.246078
 H         2.400248         0.227193        -2.211711
 H         1.972316         1.671323        -1.423694
 H         4.633838         1.312698        -0.921838
 H         4.099651         0.859915         1.837721
 H         4.976190        -0.846382         0.390241
 H         1.441729        -1.646322        -1.282134
 H         1.277547        -2.047680         0.517508
