19
Iteration:  4328charge 0 multiplicity 1
 C         0.032010         0.323599        -0.275806
 C         1.471543        -0.042161        -0.044295
 C         2.299547        -0.008087        -1.377362
 C         3.717239         0.220603        -1.009534
 C         3.598497         0.810180         0.301305
 O         2.159027         1.073290         0.556629
 C         4.053321        -0.622582         0.229988
 O         3.263897        -1.736205         0.443530
 C         1.900146        -1.338642         0.789573
 H        -0.769983        -0.098025         0.499677
 H        -0.057631         1.466527        -0.350381
 H        -0.211974        -0.109941        -1.229868
 H         2.114301        -0.928059        -1.945103
 H         1.910501         0.825326        -2.002928
 H         4.546299         0.359958        -1.726173
 H         4.223521         1.570303         0.694434
 H         5.137859        -0.890468         0.342561
 H         1.306807        -2.188708         0.340437
 H         1.589941        -1.133094         1.887964
