19
Iteration:  2826
 C         0.036161         0.305827        -0.164389
 C         1.531844         0.030755        -0.143742
 C         2.402302         0.680430        -1.209795
 C         3.812156         0.621933        -0.622443
 C         3.571883         0.573335         0.792532
 O         2.149472         0.435764         1.110489
 C         4.094091        -0.650454         0.109382
 O         3.150217        -1.736771         0.101921
 C         1.821639        -1.521248        -0.363176
 H        -0.480902        -0.618536        -0.257172
 H        -0.322191         0.952056         0.673041
 H        -0.389218         0.833144        -1.023402
 H         2.259637         0.269788        -2.138283
 H         2.004996         1.784765        -1.325344
 H         4.567458         1.384252        -0.987549
 H         3.812181         1.292145         1.598685
 H         5.036109        -1.163212         0.392512
 H         1.689155        -1.658314        -1.402224
 H         1.211870        -2.387091         0.179178
