19
Iteration:   964charge 0 multiplicity 1
 C         0.110782         0.544617        -0.160529
 C         1.541815        -0.018606        -0.186225
 C         2.533689         1.147966        -0.414548
 C         3.820869         0.775192         0.460810
 C         3.247675        -0.400401         1.227628
 O         1.872005        -0.519663         1.187710
 C         4.015871        -0.693092        -0.014950
 O         3.409217        -0.971409        -1.246423
 C         1.938432        -1.157799        -1.060748
 H         0.322035         1.515661         0.327074
 H        -0.158614         0.862491        -1.210132
 H        -0.646850        -0.126253         0.351801
 H         2.515792         1.178119        -1.486255
 H         2.091307         2.127496        -0.085425
 H         4.500675         1.451869         0.968494
 H         3.597188        -0.708345         2.212409
 H         5.051335        -1.188809         0.008244
 H         1.356593        -1.207938        -1.978789
 H         1.778969        -2.072707        -0.535916
