19
Iteration:   456charge 0 multiplicity 1
 C         0.115436         0.306767        -0.096195
 C         1.651047         0.182621        -0.207119
 C         2.457180         1.421533         0.149678
 C         3.730787         0.677372         0.470734
 C         3.239160        -0.613350         1.227527
 O         1.865093        -0.790721         0.928371
 C         4.005641        -0.705306        -0.026191
 O         3.304800        -1.227923        -1.187194
 C         2.132980        -0.509250        -1.419641
 H        -0.377197         1.283291        -0.266029
 H        -0.222136        -0.548905        -0.750130
 H        -0.071652         0.142351         0.882563
 H         2.506545         2.018828        -0.785403
 H         2.058007         1.956282         0.934060
 H         4.569411         1.263648         0.778442
 H         3.493781        -0.866405         2.281439
 H         5.019803        -1.006320        -0.094421
 H         2.383440         0.278583        -2.218273
 H         1.348756        -1.018330        -1.961789
