19
Iteration:   130
 C         0.033153         0.468916        -0.183039
 C         1.539413         0.057525        -0.130219
 C         2.528804         1.275739         0.377954
 C         3.755833         0.511808         0.841432
 C         3.175975        -0.941523         1.125805
 O         1.814128        -0.906712         0.867135
 C         4.067416        -0.630465        -0.124012
 O         3.513693        -0.608577        -1.445281
 C         2.022750        -0.572124        -1.420023
 H        -0.012512         1.642879        -0.503610
 H        -0.586407        -0.130385        -0.920307
 H        -0.388405         0.359525         0.821705
 H         2.904826         1.972460        -0.436364
 H         2.149113         1.867333         1.234542
 H         4.556596         1.081635         1.356108
 H         3.525309        -1.725253         1.845079
 H         5.087062        -1.049150        -0.085119
 H         1.783008         0.121084        -2.291582
 H         1.672439        -1.590465        -1.787888
