19
Iteration:  4928charge 0 multiplicity 1
 C         0.017623         0.341937        -0.291388
 C         1.542428         0.017636        -0.001514
 C         2.199085        -0.221998        -1.380918
 C         3.741636         0.152011        -1.099803
 C         3.577766         0.887721         0.232140
 O         2.233350         1.116703         0.545090
 C         4.047182        -0.632302         0.199835
 O         3.273905        -1.671164         0.580999
 C         1.852467        -1.318319         0.799134
 H         0.033036         1.516871        -0.559929
 H        -0.244065        -0.197775        -1.152990
 H        -0.702492         0.201685         0.513028
 H         2.295368        -1.299814        -1.722337
 H         1.731841         0.425217        -2.197936
 H         4.428077         0.279705        -1.882463
 H         4.251277         1.701637         0.613349
 H         5.057112        -0.792614         0.504019
 H         1.106932        -2.108190         0.356765
 H         1.615412        -1.189511         1.903678
