19
Iteration:    57charge 0 multiplicity 1
 C         0.127506         0.336224        -0.209247
 C         1.608685         0.147941        -0.085232
 C         2.424877         1.278737         0.494267
 C         3.695004         0.516872         0.801518
 C         3.242577        -0.888207         1.097637
 O         1.896816        -0.960341         0.695860
 C         4.092718        -0.661610        -0.152579
 O         3.311761        -0.906229        -1.328899
 C         2.072117        -0.161190        -1.444847
 H        -0.217608        -0.598625        -0.308978
 H        -0.259642         0.794932         0.723330
 H        -0.106909         0.985956        -1.088729
 H         2.530747         2.134518        -0.111088
 H         2.048659         1.577849         1.482553
 H         4.486042         0.958965         1.471446
 H         3.480393        -1.457047         2.042736
 H         5.215789        -0.990908        -0.225099
 H         2.283630         0.749824        -2.014656
 H         1.452798        -0.782986        -2.029910
