19
Iteration:  1856
 C         0.123726         0.403115        -0.204682
 C         1.581869         0.057801        -0.207130
 C         2.396768         1.299685        -0.672524
 C         3.710708         0.813793        -0.183247
 C         3.389752         0.107792         1.144452
 O         2.042164        -0.177191         1.278871
 C         4.010358        -0.771502         0.044941
 O         3.248824        -1.742434        -0.562564
 C         1.989136        -1.206999        -0.962249
 H        -0.182289         0.424138         0.878096
 H        -0.143063         1.373581        -0.699838
 H        -0.374330        -0.447162        -0.815639
 H         2.223850         1.290989        -1.812869
 H         2.059357         2.217652        -0.094830
 H         4.566070         1.536521        -0.213708
 H         3.929707         0.361664         2.051291
 H         5.013037        -1.063175         0.165156
 H         2.014213        -1.162807        -2.003917
 H         1.228084        -1.924484        -0.556716
