19
Iteration:  2462charge 0 multiplicity 1
 C         0.039312         0.300650        -0.173834
 C         1.573014         0.018344        -0.143087
 C         2.456208         0.928370        -1.108173
 C         3.750555         0.703109        -0.392370
 C         3.467460         0.398812         1.047104
 O         2.093845         0.234553         1.160688
 C         4.087611        -0.656949         0.071083
 O         3.163688        -1.782963        -0.198320
 C         1.877997        -1.392394        -0.567184
 H        -0.007673         1.196894        -0.799802
 H        -0.568045        -0.501729        -0.508169
 H        -0.294324         0.652821         0.850514
 H         2.431495         0.469757        -2.089640
 H         2.077326         2.029029        -1.226255
 H         4.572698         1.372297        -0.640697
 H         4.030593         0.844461         1.842851
 H         5.105638        -0.894987         0.034902
 H         1.675764        -1.593816        -1.760439
 H         1.248311        -2.049184        -0.018753
