19
Iteration:  1624charge 0 multiplicity 1
 C         0.118836         0.306824        -0.242142
 C         1.557381         0.090148        -0.068683
 C         2.422290         1.332011        -0.570858
 C         3.766521         0.801068        -0.125059
 C         3.414321        -0.018381         1.147030
 O         2.025093        -0.276981         1.188993
 C         3.976115        -0.677859         0.019470
 O         3.155912        -1.683107        -0.528838
 C         2.048580        -1.047242        -1.039884
 H        -0.386173        -0.561511         0.286821
 H        -0.127566         1.268672         0.203782
 H        -0.219380         0.338165        -1.266243
 H         2.377138         1.209639        -1.715619
 H         2.125602         2.255818        -0.117627
 H         4.698752         1.344311        -0.253663
 H         3.843438         0.019689         2.126683
 H         5.037456        -1.021556        -0.012819
 H         2.193201        -0.694673        -2.248771
 H         1.325792        -1.896986        -1.124469
