19
Iteration:  2888charge 0 multiplicity 1
 C        -0.046767         0.234537        -0.227226
 C         1.507198         0.002466        -0.145925
 C         2.453702         0.597436        -1.229471
 C         3.843502         0.645682        -0.648450
 C         3.539076         0.612204         0.905190
 O         2.158392         0.603631         1.102696
 C         4.036661        -0.657604         0.171903
 O         3.197673        -1.777904        -0.139189
 C         1.800623        -1.497896        -0.123778
 H        -0.350857         0.434192        -1.275587
 H        -0.608406        -0.586759         0.174368
 H        -0.139297         1.246353         0.384944
 H         2.358613        -0.008772        -2.275633
 H         2.071049         1.568492        -1.381371
 H         4.750854         1.066214        -1.170122
 H         4.234462         1.081281         1.663022
 H         5.048005        -0.913214         0.416945
 H         1.409019        -1.868999        -1.147806
 H         1.342335        -2.105152         0.650600
