19
Iteration:  4139charge 0 multiplicity 1
 C         0.053255         0.256190        -0.084427
 C         1.558704        -0.039785        -0.095978
 C         2.345931        -0.092265        -1.476103
 C         3.780027         0.253387        -1.082091
 C         3.575767         0.839777         0.320217
 O         2.205978         1.090163         0.528630
 C         4.027319        -0.617896         0.279236
 O         3.114412        -1.709711         0.421266
 C         1.852947        -1.320816         0.716564
 H        -0.515720        -0.229568         0.684440
 H        -0.043061         1.413628         0.105240
 H        -0.439663         0.095136        -1.144756
 H         2.282864        -1.121141        -1.960314
 H         2.066730         0.598940        -2.221239
 H         4.534955         0.641270        -1.706041
 H         4.117583         1.617545         0.938661
 H         4.995767        -0.907757         0.660124
 H         1.187779        -2.174056         0.644401
 H         1.780414        -0.982162         1.742324
