19
Iteration:  2004
 C        -0.015064         0.311461        -0.136778
 C         1.551606         0.082254        -0.206735
 C         2.444707         1.180109        -0.674541
 C         3.792027         0.767214        -0.159402
 C         3.423615         0.140942         1.098715
 O         2.022879         0.094575         1.184966
 C         4.052454        -0.752668         0.013112
 O         3.252656        -1.760916        -0.482661
 C         1.966334        -1.311658        -0.929930
 H        -0.429193         0.824503        -1.075694
 H        -0.404661        -0.658514         0.070154
 H        -0.351881         0.892456         0.655622
 H         2.467977         1.254937        -1.782457
 H         2.153105         2.159951        -0.142144
 H         4.686871         1.402025        -0.339421
 H         3.906835         0.351796         2.077814
 H         5.070820        -0.983827        -0.008702
 H         1.927733        -1.123873        -2.076266
 H         1.393101        -2.124633        -0.794394
