19
Iteration:  3661charge 0 multiplicity 1
 C         0.059022         0.377327        -0.117962
 C         1.591354         0.010403        -0.172215
 C         2.281332         0.106094        -1.540731
 C         3.723660         0.331064        -0.999693
 C         3.543003         0.804454         0.448434
 O         2.194577         0.790525         0.818636
 C         4.090573        -0.607438         0.165982
 O         3.218446        -1.696105         0.637729
 C         1.817415        -1.441904         0.300000
 H        -0.048205         1.379793        -0.472122
 H        -0.469352        -0.249575        -0.830308
 H        -0.378877         0.361604         0.899912
 H         2.120465        -0.693503        -2.199868
 H         1.967401         1.117238        -1.950162
 H         4.465928         0.821661        -1.611653
 H         4.129665         1.704738         0.862761
 H         5.112648        -0.826042         0.349071
 H         1.467798        -2.202166        -0.550471
 H         1.173488        -1.513221         1.088143
