19
Iteration:  1096
 C         0.080757         0.387876        -0.088118
 C         1.589166         0.096197        -0.216318
 C         2.464630         1.367192        -0.353406
 C         3.838394         0.805179         0.213405
 C         3.273180        -0.233829         1.259212
 O         1.908036        -0.466109         1.102738
 C         4.050734        -0.729235         0.038654
 O         3.347629        -1.436913        -0.993139
 C         1.993829        -1.019756        -1.202632
 H        -0.619890        -0.078625        -0.729821
 H        -0.316910         0.192301         0.883080
 H        -0.093701         1.474548        -0.129052
 H         2.402246         1.693419        -1.406671
 H         1.867169         2.292517         0.049107
 H         4.701275         1.337779         0.592517
 H         3.637549        -0.479743         2.284725
 H         5.060690        -1.076451         0.113513
 H         1.838558        -0.737773        -2.300507
 H         1.365277        -1.916385        -1.066185
