19
Iteration:  2344charge 0 multiplicity 1
 C         0.050401         0.455966        -0.214682
 C         1.572894         0.062088        -0.151140
 C         2.481180         0.933786        -1.049604
 C         3.767628         0.783282        -0.309467
 C         3.375075         0.173362         1.110939
 O         1.941895         0.329090         1.209601
 C         3.976603        -0.704666         0.099674
 O         3.356079        -1.687103        -0.714153
 C         1.973159        -1.593715        -0.296226
 H        -0.476110         0.037737         0.601681
 H        -0.027204         1.507798        -0.181810
 H        -0.381380         0.048715        -1.199706
 H         2.476856         0.600966        -2.000599
 H         2.051686         1.966986        -1.119449
 H         4.706703         1.307052        -0.479321
 H         3.867879         0.240680         2.055780
 H         4.948403        -0.951878         0.390183
 H         1.442123        -1.966950        -1.109405
 H         1.678868        -2.025695         0.705563
