19
Iteration:  3440
 C         0.091207         0.403088        -0.232277
 C         1.509960         0.010682        -0.170471
 C         2.277114         0.298541        -1.425935
 C         3.671793         0.403410        -0.945293
 C         3.600302         0.749666         0.561109
 O         2.227079         0.734200         0.951653
 C         4.040932        -0.607383         0.225776
 O         3.224483        -1.687469         0.487335
 C         1.815587        -1.591345         0.127786
 H        -0.038557         1.106111         0.633959
 H        -0.173146         0.904971        -1.107503
 H        -0.556745        -0.438211        -0.101339
 H         2.281639        -0.443558        -2.275907
 H         2.059729         1.227122        -1.971506
 H         4.487503         0.714585        -1.610339
 H         4.222155         1.572471         1.084832
 H         5.075894        -0.832566         0.266278
 H         1.602634        -2.150150        -0.762229
 H         1.153327        -2.035897         1.027093
