19
Iteration:  4632charge 0 multiplicity 1
 C        -0.030371         0.337193        -0.090168
 C         1.522709        -0.076293        -0.181624
 C         2.327824        -0.099118        -1.562303
 C         3.713674         0.073953        -1.126851
 C         3.590737         0.826685         0.115123
 O         2.279651         0.920142         0.550672
 C         4.078862        -0.635731         0.176259
 O         3.226100        -1.337760         0.994705
 C         1.788037        -1.398582         0.574407
 H        -0.068551         0.947146         0.869676
 H        -0.550451         1.142401        -0.744767
 H        -0.583549        -0.554480         0.061070
 H         2.124200        -1.025796        -2.095316
 H         2.012471         0.685571        -2.198870
 H         4.419036         0.337707        -1.915464
 H         4.218580         1.639975         0.454395
 H         5.123282        -0.789499         0.480869
 H         1.543994        -2.345146        -0.078719
 H         1.199067        -1.306544         1.472152
