19
Iteration:  1314charge 0 multiplicity 1
 C         0.063348         0.386378        -0.261664
 C         1.517078         0.114866        -0.086308
 C         2.507008         1.211783        -0.587793
 C         3.798106         0.812417         0.136726
 C         3.341339        -0.249679         1.225973
 O         1.907274        -0.255387         1.276954
 C         4.059445        -0.735994         0.044012
 O         3.352358        -1.369153        -1.037945
 C         1.938542        -1.201142        -0.928148
 H        -0.462956        -0.327399        -0.932449
 H        -0.387907         0.390102         0.793113
 H        -0.177663         1.476987        -0.536025
 H         2.795565         1.263617        -1.705258
 H         2.198764         2.243098        -0.318313
 H         4.627425         1.554987         0.228389
 H         3.736455        -0.125751         2.262562
 H         5.121185        -1.119077         0.029640
 H         1.595546        -1.045613        -1.955412
 H         1.517254        -2.037986        -0.342772
