19
Iteration:  1263charge 0 multiplicity 1
 C         0.077038         0.321618        -0.184054
 C         1.614868         0.150736        -0.165218
 C         2.385951         1.410925        -0.379391
 C         3.744422         0.739081         0.015673
 C         3.361491        -0.125525         1.203005
 O         1.982655        -0.345700         1.124211
 C         4.014302        -0.707614        -0.013121
 O         3.258115        -1.666107        -0.721057
 C         2.067108        -0.994290        -1.162847
 H        -0.365362        -0.475069         0.422005
 H        -0.175587         1.231487         0.429525
 H        -0.298257         0.413429        -1.190879
 H         2.473553         1.907116        -1.337030
 H         1.962069         2.245738         0.267982
 H         4.630092         1.300871         0.242369
 H         3.823657        -0.247661         2.228732
 H         5.122664        -1.045934        -0.003345
 H         2.036967        -0.612587        -2.271405
 H         1.172882        -1.734545        -1.144223
