19
Iteration:  4598charge 0 multiplicity 1
 C         0.094277         0.231945        -0.162887
 C         1.602819         0.018353        -0.153512
 C         2.219482        -0.080033        -1.441623
 C         3.671479        -0.023346        -1.046430
 C         3.554056         0.869637         0.136280
 O         2.270143         1.183388         0.491580
 C         3.998561        -0.578893         0.287569
 O         3.265755        -1.608285         0.865287
 C         1.827006        -1.331713         0.542027
 H        -0.056039         1.047379         0.487071
 H        -0.413950         0.301333        -1.206912
 H        -0.504499        -0.505805         0.407991
 H         1.859301        -1.030924        -1.896233
 H         1.895047         0.747608        -1.949791
 H         4.240351         0.069543        -1.930472
 H         4.392548         1.597467         0.405640
 H         5.051365        -0.627968         0.437524
 H         1.411592        -2.225460        -0.044941
 H         1.367333        -1.453876         1.529982
