19
Iteration:  2034
 C         0.070386         0.235598        -0.084306
 C         1.600521         0.087854        -0.174118
 C         2.438175         1.209916        -0.812543
 C         3.800507         0.755403        -0.254103
 C         3.386166         0.194759         1.096100
 O         2.039876        -0.065221         1.142979
 C         3.996114        -0.766111         0.118897
 O         3.169259        -1.740502        -0.405005
 C         2.006923        -1.127753        -0.918769
 H        -0.264617         1.265889        -0.370728
 H        -0.554864        -0.521197        -0.602020
 H        -0.333353         0.194394         0.952207
 H         2.380129         1.138647        -1.836231
 H         2.147200         2.312674        -0.679809
 H         4.749720         1.276945        -0.513457
 H         3.894961         0.460069         2.096264
 H         5.019464        -1.054299         0.167793
 H         2.182866        -0.930690        -1.949896
 H         1.262813        -1.984832        -0.849204
