19
Iteration:  3201
 C         0.017919         0.404358        -0.214334
 C         1.533125         0.049505        -0.197282
 C         2.291839         0.546683        -1.425653
 C         3.655074         0.469818        -0.850362
 C         3.508420         0.625434         0.681153
 O         2.118796         0.672180         0.987141
 C         4.093450        -0.720344         0.238402
 O         3.344163        -1.821620         0.320700
 C         1.905585        -1.536831         0.062303
 H        -0.071468         1.329548         0.453363
 H        -0.220148         0.728664        -1.212232
 H        -0.545754        -0.507304         0.056780
 H         2.261217         0.178566        -2.357442
 H         1.914287         1.620443        -1.554212
 H         4.537699         0.842983        -1.334499
 H         4.038077         1.340799         1.218919
 H         5.171287        -1.015362         0.290423
 H         1.561157        -1.995307        -0.962523
 H         1.304851        -1.833365         0.836985
