19
Iteration:  2906
 C         0.072468         0.273738        -0.199763
 C         1.553734        -0.005788        -0.083463
 C         2.453747         0.482016        -1.258972
 C         3.802737         0.621363        -0.589138
 C         3.528595         0.593564         0.902437
 O         2.108766         0.646306         1.074981
 C         4.036178        -0.659181         0.178239
 O         3.183556        -1.671911        -0.280148
 C         1.773159        -1.526607        -0.075405
 H        -0.139640         0.832468        -1.165674
 H        -0.384539        -0.703940        -0.417890
 H        -0.264460         0.789894         0.654632
 H         2.568412        -0.309803        -1.921108
 H         2.112522         1.440926        -1.715013
 H         4.603662         1.222224        -0.986276
 H         3.962765         1.129450         1.736605
 H         5.027009        -1.038091         0.350807
 H         1.184861        -2.042811        -0.847539
 H         1.424811        -1.887148         0.982348
