19
Iteration:  4732
 C         0.097920         0.203401        -0.126732
 C         1.518483        -0.063694        -0.101665
 C         2.381747        -0.266834        -1.519846
 C         3.751349         0.160000        -1.072377
 C         3.583798         0.862331         0.203737
 O         2.191085         1.134511         0.465268
 C         4.001321        -0.594633         0.167585
 O         3.121969        -1.665757         0.623506
 C         1.842259        -1.147321         0.877641
 H        -0.511163        -0.397689         0.713574
 H        -0.019702         1.312282         0.095988
 H        -0.314723         0.183369        -1.115679
 H         2.474272        -1.210892        -1.998395
 H         1.864276         0.404432        -2.200443
 H         4.513219         0.427278        -1.865717
 H         4.322847         1.561081         0.574926
 H         5.078870        -0.647850         0.434415
 H         0.930960        -1.953994         0.824153
 H         1.948643        -0.634230         1.851941
