19
Iteration:   169charge 0 multiplicity 1
 C         0.138449         0.485020        -0.269181
 C         1.570521         0.054033        -0.070436
 C         2.514502         1.244354         0.270422
 C         3.729162         0.454627         0.764872
 C         3.198492        -0.944223         1.085849
 O         1.752141        -0.887392         1.008528
 C         4.057131        -0.667280        -0.142022
 O         3.487637        -0.451162        -1.442878
 C         2.052772        -0.654416        -1.328311
 H        -0.173239         0.943390         0.654055
 H         0.003320         1.296698        -0.963245
 H        -0.559162        -0.346663        -0.460232
 H         2.673508         1.910404        -0.607633
 H         2.083934         1.927866         1.011397
 H         4.538102         0.974036         1.233214
 H         3.454125        -1.695546         1.812492
 H         5.000496        -1.100620        -0.154114
 H         1.685883        -0.127691        -2.178106
 H         1.740929        -1.681057        -1.292146
