19
Iteration:  1755charge 0 multiplicity 1
 C         0.005838         0.424583        -0.332624
 C         1.516085         0.048125        -0.089255
 C         2.468192         1.153316        -0.641882
 C         3.830892         0.784638        -0.013867
 C         3.327648        -0.121730         1.226563
 O         1.961902         0.047676         1.293672
 C         4.066838        -0.716679         0.016526
 O         3.371326        -1.518204        -1.012067
 C         1.912631        -1.401212        -0.657164
 H         0.109464         1.375132        -0.995256
 H        -0.523469        -0.354693        -0.857021
 H        -0.390410         0.679718         0.631695
 H         2.511443         1.288436        -1.814085
 H         2.046835         2.092243        -0.373683
 H         4.670902         1.428999        -0.032429
 H         3.852803        -0.100754         2.188134
 H         5.166653        -0.903259         0.080368
 H         1.510649        -1.411151        -1.625899
 H         1.593348        -2.269412         0.056626
