19
Iteration:  3936charge 0 multiplicity 1
 C         0.073192         0.399260        -0.204630
 C         1.536805        -0.024273        -0.036728
 C         2.355830        -0.205299        -1.412412
 C         3.754923         0.253728        -1.049720
 C         3.535988         0.866580         0.353663
 O         2.159113         1.082077         0.731374
 C         4.074061        -0.585880         0.237249
 O         3.193642        -1.737197         0.379496
 C         1.817851        -1.377171         0.586192
 H         0.032416         1.471712        -0.592396
 H        -0.465449        -0.370438        -0.896411
 H        -0.435244         0.478798         0.720317
 H         2.318603        -1.214335        -1.813834
 H         1.814784         0.410256        -2.198980
 H         4.319543         0.723275        -1.846179
 H         4.281251         1.603685         0.794877
 H         5.160872        -0.789897         0.410727
 H         1.174281        -2.013084         0.138341
 H         1.792641        -1.359635         1.708118
