19
Iteration:   629
 C         0.030406         0.438802        -0.214673
 C         1.604948         0.161884        -0.133427
 C         2.470903         1.378004         0.016812
 C         3.774475         0.761743         0.408268
 C         3.301028        -0.581137         1.209506
 O         1.895156        -0.796924         1.055423
 C         4.057371        -0.637632        -0.057518
 O         3.291510        -1.280574        -1.121285
 C         2.098394        -0.654933        -1.374762
 H        -0.377408        -0.293800        -0.935437
 H        -0.466370        -0.020938         0.748396
 H        -0.209131         1.446341        -0.359829
 H         2.306172         1.969453        -0.927056
 H         2.017714         1.988166         0.865407
 H         4.655237         1.346353         0.750507
 H         3.773537        -0.771620         2.212936
 H         5.067495        -0.943683        -0.063917
 H         2.120999        -0.026300        -2.241543
 H         1.491180        -1.523952        -1.397420
