19
Iteration:  1449charge 0 multiplicity 1
 C         0.077591         0.322961        -0.080788
 C         1.534566         0.069103        -0.194907
 C         2.411639         1.280417        -0.583966
 C         3.775200         0.793474        -0.036606
 C         3.391588        -0.033906         1.222016
 O         1.969870        -0.307262         1.170042
 C         4.018675        -0.730731         0.101664
 O         3.221568        -1.643363        -0.682239
 C         2.076117        -0.996297        -1.142518
 H        -0.099132         1.450232         0.168936
 H        -0.500709         0.081021        -1.067862
 H        -0.329122        -0.267667         0.805301
 H         2.580482         1.396832        -1.764537
 H         2.215450         2.307832        -0.228304
 H         4.646921         1.523295        -0.073754
 H         3.736208         0.119835         2.247798
 H         4.978762        -1.125851         0.061592
 H         2.388500        -0.569524        -2.107274
 H         1.307733        -1.832912        -1.394437
