19
Iteration:  1564charge 0 multiplicity 1
 C         0.115524         0.372329        -0.229311
 C         1.548235         0.117171        -0.167021
 C         2.568870         1.129356        -0.751977
 C         3.833850         0.765554         0.134597
 C         3.272926        -0.126309         1.222342
 O         1.885638        -0.142959         1.282807
 C         4.021904        -0.734309         0.012440
 O         3.334961        -1.368088        -1.031537
 C         1.926451        -1.246890        -0.759724
 H        -0.226443         0.125909         0.818416
 H        -0.264025         1.377629        -0.449328
 H        -0.433635        -0.417478        -0.793934
 H         2.749276         0.998164        -1.775672
 H         2.196463         2.180697        -0.590638
 H         4.705552         1.380903         0.372259
 H         3.691133        -0.051033         2.206170
 H         5.090296        -0.956173         0.214555
 H         1.306499        -1.431596        -1.769081
 H         1.618680        -2.000025         0.066687
