19
Iteration:  1548charge 0 multiplicity 1
 C         0.098560         0.350385        -0.298624
 C         1.550743         0.035870        -0.094919
 C         2.608550         1.091790        -0.663031
 C         3.765778         0.780530         0.142081
 C         3.341552        -0.113996         1.246049
 O         1.914860        -0.088645         1.294132
 C         4.027557        -0.750644         0.035624
 O         3.271155        -1.242775        -1.117220
 C         1.918829        -1.338808        -0.703709
 H        -0.586719         0.525610         0.607334
 H         0.043937         1.367632        -0.761417
 H        -0.323839        -0.267989        -1.086407
 H         2.715037         0.809740        -1.815824
 H         2.285404         2.139114        -0.742199
 H         4.485894         1.612341         0.191401
 H         3.870706        -0.243337         2.223181
 H         4.883493        -1.400346         0.009232
 H         1.486070        -1.455649        -1.612481
 H         1.839070        -2.088716         0.058358
