19
Iteration:  4070charge 0 multiplicity 1
 C         0.165299         0.395485        -0.153374
 C         1.543041        -0.152429        -0.190811
 C         2.232959         0.061956        -1.551220
 C         3.672447         0.133518        -1.094794
 C         3.567577         0.870474         0.240949
 O         2.165872         0.918386         0.692278
 C         4.043288        -0.558276         0.201459
 O         3.237650        -1.624228         0.773225
 C         1.869899        -1.409237         0.592783
 H        -0.536466         0.089499         0.661728
 H         0.245872         1.434320        -0.115945
 H        -0.276104         0.192536        -1.161764
 H         1.959769        -0.775498        -2.180201
 H         1.938789         1.002591        -2.074114
 H         4.350243         0.430097        -1.957952
 H         4.205383         1.603761         0.636708
 H         5.100448        -0.913267         0.256438
 H         1.432377        -2.296652         0.247064
 H         1.412645        -1.195269         1.590907
