19
Iteration:  4577
 C        -0.048067         0.242401        -0.187298
 C         1.544691         0.005324        -0.035522
 C         2.255895        -0.075405        -1.585246
 C         3.775916         0.019633        -1.096210
 C         3.625598         0.864065         0.237411
 O         2.209170         1.110274         0.477360
 C         4.104569        -0.624487         0.232895
 O         3.236357        -1.624767         0.726387
 C         1.841057        -1.267023         0.790890
 H        -0.347122         1.234254         0.154925
 H        -0.333586         0.159373        -1.307184
 H        -0.746577        -0.314447         0.413597
 H         2.031357        -1.035134        -2.075363
 H         1.978983         0.796104        -2.137630
 H         4.476790         0.175952        -1.872820
 H         4.205282         1.820764         0.458793
 H         5.104015        -0.801495         0.570393
 H         1.259784        -2.119215         0.371235
 H         1.475944        -1.272419         1.764902
