19
Iteration:  1299
 C         0.015392         0.358837        -0.290832
 C         1.566858         0.040310        -0.132039
 C         2.500812         1.233657        -0.487335
 C         3.813836         0.755037         0.166616
 C         3.413112        -0.134555         1.274014
 O         1.972482        -0.218161         1.272621
 C         4.057239        -0.678605        -0.063339
 O         3.299436        -1.476469        -0.919678
 C         1.892284        -1.107805        -1.013207
 H        -0.444311        -0.515987        -0.894194
 H        -0.583092         0.521719         0.592874
 H        -0.207225         1.180133        -0.994714
 H         2.436361         1.192084        -1.565608
 H         2.085700         2.224475         0.042051
 H         4.687549         1.402696         0.272248
 H         3.903969        -0.381649         2.171535
 H         5.035496        -1.012298         0.033306
 H         1.743845        -0.741577        -2.122337
 H         1.297263        -2.012272        -0.760634
