19
Iteration:  3401
 C        -0.007530         0.326784        -0.192662
 C         1.524422        -0.032155        -0.186311
 C         2.385899         0.413698        -1.496061
 C         3.747261         0.424328        -0.901911
 C         3.605714         0.671965         0.621491
 O         2.183813         0.779494         0.918973
 C         4.045829        -0.623331         0.188825
 O         3.225437        -1.736297         0.417571
 C         1.793473        -1.479213         0.185378
 H        -0.148227         1.425660        -0.304115
 H        -0.607090        -0.327232        -0.943239
 H        -0.425931        -0.054035         0.826184
 H         2.292184        -0.392399        -2.179306
 H         1.967754         1.417310        -1.856023
 H         4.588976         0.702116        -1.561883
 H         4.197375         1.349459         1.141114
 H         5.133932        -0.897706         0.265958
 H         1.459639        -2.316235        -0.584168
 H         1.276816        -1.647989         1.074841
