19
Iteration:  4748
 C        -0.022018         0.317758        -0.179470
 C         1.564292        -0.000039        -0.110902
 C         2.284237        -0.223256        -1.435044
 C         3.729719         0.125361        -1.106715
 C         3.575846         0.846125         0.263751
 O         2.204482         1.181947         0.374143
 C         4.067187        -0.635480         0.240922
 O         3.238777        -1.687631         0.604337
 C         1.873729        -1.231369         0.880095
 H        -0.542854        -0.240334         0.552338
 H        -0.289940         1.319975         0.127171
 H        -0.444739        -0.116915        -1.143684
 H         2.070745        -1.334490        -1.623292
 H         1.917919         0.397693        -2.304340
 H         4.503198         0.354207        -1.795940
 H         4.082222         1.741229         0.684080
 H         5.091552        -0.916441         0.463611
 H         1.363828        -2.101110         0.663091
 H         1.706708        -1.012143         1.961365
