19
Iteration:   958
 C         0.092308         0.540733        -0.186244
 C         1.534864        -0.023275        -0.123492
 C         2.550396         1.130065        -0.386169
 C         3.822117         0.776988         0.495218
 C         3.281574        -0.424913         1.231418
 O         1.838358        -0.479072         1.161137
 C         4.031940        -0.698962        -0.033277
 O         3.375632        -0.970456        -1.277428
 C         1.995576        -1.143899        -1.043182
 H         0.242984         1.541347         0.224621
 H        -0.447468         0.617768        -1.230458
 H        -0.698191         0.104879         0.421810
 H         2.649002         1.359669        -1.508826
 H         1.980596         2.042295        -0.185421
 H         4.598259         1.478724         0.831251
 H         3.690076        -0.804103         2.211888
 H         4.937334        -1.220254         0.024853
 H         1.485283        -1.315397        -2.021797
 H         1.850414        -2.142539        -0.507807
