19
Iteration:   785charge 0 multiplicity 1
 C         0.013659         0.318513        -0.263070
 C         1.541847         0.140765        -0.089082
 C         2.583735         1.236393        -0.148429
 C         3.848816         0.684475         0.512687
 C         3.276266        -0.545462         1.256674
 O         1.825672        -0.438700         1.175524
 C         4.073678        -0.745125        -0.077465
 O         3.392447        -0.961792        -1.362134
 C         1.977874        -0.969054        -1.148018
 H        -0.649054        -0.149333         0.481491
 H        -0.335646         1.380681        -0.284352
 H        -0.257077        -0.032177        -1.295090
 H         2.831747         1.608759        -1.202483
 H         2.288644         2.066830         0.485930
 H         4.595875         1.427167         0.758635
 H         3.549336        -0.935822         2.297223
 H         5.019100        -1.362274        -0.042498
 H         1.529445        -0.752556        -2.106021
 H         1.565762        -1.935509        -0.777373
