19
Iteration:  1443
 C         0.082348         0.325413        -0.082097
 C         1.555250         0.076711        -0.216388
 C         2.448444         1.352915        -0.588343
 C         3.724123         0.812698        -0.056068
 C         3.338313        -0.040580         1.197422
 O         1.966099        -0.313853         1.179574
 C         4.011317        -0.743159         0.047154
 O         3.250063        -1.659478        -0.650225
 C         2.116740        -1.032951        -1.110169
 H        -0.283991         1.325991        -0.005790
 H        -0.392907        -0.011008        -0.936647
 H        -0.393200        -0.053366         0.788164
 H         2.527592         1.547178        -1.582909
 H         2.168496         2.193266         0.117572
 H         4.688867         1.268815        -0.115681
 H         3.849076         0.044476         2.181661
 H         5.064911        -1.207883         0.096387
 H         2.161924        -0.577262        -2.154725
 H         1.247230        -1.635158        -1.287268
