19
Iteration:  2083
 C         0.071552         0.402264        -0.190225
 C         1.539634         0.085463        -0.125562
 C         2.428095         1.116800        -0.802721
 C         3.788212         0.783368        -0.207346
 C         3.391728         0.124881         1.137313
 O         1.989740         0.035388         1.162400
 C         4.048562        -0.677601         0.031371
 O         3.347933        -1.748427        -0.603511
 C         1.883670        -1.363659        -0.683909
 H        -0.354048         0.918517         0.646943
 H        -0.108501         1.007603        -1.091010
 H        -0.537013        -0.524049        -0.342395
 H         2.321361         1.189013        -1.976536
 H         2.250271         2.162439        -0.560595
 H         4.526707         1.564992        -0.247295
 H         3.838160         0.347154         2.097822
 H         5.124090        -0.999151         0.240159
 H         1.605521        -1.503084        -1.746292
 H         1.533141        -2.069189        -0.000595
