19
Iteration:    96charge 0 multiplicity 1
 C         0.077593         0.372729        -0.054682
 C         1.557541         0.092574        -0.111275
 C         2.472304         1.319200         0.402910
 C         3.681019         0.507194         0.776173
 C         3.159536        -0.865293         1.138763
 O         1.800861        -0.937624         0.812192
 C         4.050022        -0.708522        -0.100972
 O         3.536026        -0.838485        -1.470426
 C         2.161125        -0.260898        -1.504208
 H        -0.504386         0.307889        -1.140269
 H        -0.426744        -0.468533         0.491758
 H        -0.158608         1.263122         0.515551
 H         2.638761         2.102559        -0.429511
 H         2.043077         1.919084         1.236464
 H         4.423574         1.035316         1.325772
 H         3.360042        -1.499447         1.999217
 H         5.002661        -1.105219        -0.104015
 H         2.204626         0.758340        -2.007422
 H         1.537551        -1.044571        -2.084506
