19
Iteration:  1979
 C         0.151494         0.336983        -0.269317
 C         1.628148         0.068979        -0.137596
 C         2.434660         1.178161        -0.839803
 C         3.774137         0.829881        -0.206182
 C         3.395074         0.080740         1.193501
 O         2.024304        -0.091460         1.313321
 C         4.031901        -0.654210         0.071037
 O         3.239410        -1.651043        -0.641892
 C         1.829076        -1.303495        -0.786320
 H        -0.182160         0.124594        -1.295250
 H        -0.340847        -0.321139         0.501474
 H        -0.109250         1.416316        -0.051325
 H         2.389050         0.997915        -1.872466
 H         2.122061         2.202902        -0.386906
 H         4.577077         1.571149        -0.257907
 H         3.972464         0.140161         2.177691
 H         5.098504        -0.987265         0.178075
 H         1.504334        -1.194045        -1.814290
 H         1.233812        -2.169423        -0.353284
