19
Iteration:   855
 C         0.087319         0.492847        -0.028950
 C         1.574160         0.059759        -0.198149
 C         2.402082         1.442850        -0.141603
 C         3.701392         0.819153         0.256650
 C         3.316294        -0.439905         1.263159
 O         1.884704        -0.718213         0.977924
 C         4.069749        -0.655165        -0.058136
 O         3.316639        -1.500715        -0.916471
 C         2.164583        -0.747517        -1.385381
 H        -0.658862         0.102256        -0.809979
 H        -0.485261        -0.011513         0.832768
 H        -0.092550         1.624038        -0.102104
 H         2.347053         1.879951        -1.092858
 H         2.067912         2.080365         0.692268
 H         4.549185         1.520333         0.452308
 H         3.653595        -0.482968         2.248767
 H         5.139525        -0.897814        -0.026891
 H         2.363624        -0.093169        -2.227716
 H         1.523742        -1.561152        -1.588374
