19
Iteration:  3762
 C         0.082130         0.263573        -0.244528
 C         1.544754         0.008700        -0.041470
 C         2.279706         0.075000        -1.415310
 C         3.732290         0.307131        -0.968407
 C         3.624890         0.805760         0.421707
 O         2.213160         1.038715         0.744603
 C         4.029370        -0.694812         0.224933
 O         3.158334        -1.699777         0.334168
 C         1.839123        -1.382135         0.530595
 H        -0.398831         0.199961         0.722774
 H        -0.374582         1.024411        -0.930934
 H        -0.149542        -0.638288        -0.708317
 H         2.186261        -0.758010        -2.062515
 H         2.039389         1.009478        -1.989792
 H         4.529795         0.745194        -1.597493
 H         4.298713         1.433636         0.893183
 H         5.044486        -1.064995         0.561363
 H         1.091209        -2.205904         0.072066
 H         1.624580        -1.381406         1.569713
