19
Iteration:  2584
 C         0.090958         0.352385        -0.127979
 C         1.550318        -0.002365        -0.161916
 C         2.453980         0.814680        -1.148400
 C         3.798129         0.726151        -0.474619
 C         3.436007         0.464931         0.952332
 O         2.057090         0.365435         1.146529
 C         4.030636        -0.674076         0.086040
 O         3.241217        -1.759657        -0.225180
 C         1.829766        -1.508606        -0.408069
 H        -0.441585        -0.489980         0.231915
 H        -0.112480         1.245355         0.412891
 H        -0.116203         0.518065        -1.229049
 H         2.441237         0.335002        -2.056011
 H         2.197992         1.937038        -1.125109
 H         4.671966         1.315921        -0.739221
 H         3.881879         0.869012         1.865232
 H         5.062674        -1.084928         0.309578
 H         1.461316        -1.947241        -1.459322
 H         1.320871        -2.108735         0.317183
