19
Iteration:  4849
 C         0.034854         0.244825        -0.108055
 C         1.533482        -0.025446        -0.058693
 C         2.185756        -0.060087        -1.441710
 C         3.686298        -0.099532        -1.130039
 C         3.617404         0.856944         0.105681
 O         2.305526         1.135919         0.495857
 C         4.041788        -0.486990         0.329844
 O         3.198285        -1.530501         0.893937
 C         1.870907        -1.387013         0.494970
 H        -0.015467         1.091499         0.553946
 H        -0.371369         0.499810        -1.185601
 H        -0.591324        -0.457896         0.343770
 H         1.861519        -0.885268        -2.210691
 H         2.092120         0.855430        -2.035235
 H         4.530958        -0.055719        -1.923994
 H         4.292134         1.718982         0.255838
 H         5.099005        -0.838891         0.522103
 H         1.604641        -2.107761        -0.359387
 H         1.216673        -1.628392         1.392132
