19
Iteration:  4381charge 0 multiplicity 1
 C         0.004645         0.265802        -0.078395
 C         1.482365        -0.055311        -0.172597
 C         2.402391        -0.122024        -1.611539
 C         3.766821         0.194842        -1.088309
 C         3.606509         0.867095         0.361438
 O         2.254723         0.951428         0.644111
 C         4.080874        -0.575729         0.200097
 O         3.158702        -1.569330         0.614103
 C         1.766105        -1.288462         0.630657
 H        -0.472489        -0.601223         0.264708
 H        -0.150956         1.108686         0.624076
 H        -0.454717         0.350439        -0.969050
 H         2.004244        -1.060160        -2.098689
 H         2.102469         0.695686        -2.275351
 H         4.633160         0.557614        -1.696541
 H         4.178910         1.724564         0.638314
 H         5.093236        -0.905269         0.566978
 H         1.249099        -2.116988         0.187928
 H         1.311698        -0.918428         1.611012
