19
Iteration:  2486
 C        -0.009533         0.306836        -0.238834
 C         1.515419         0.051754        -0.122678
 C         2.464746         0.807087        -1.126328
 C         3.869059         0.741561        -0.388870
 C         3.484884         0.370929         1.033472
 O         2.055206         0.373740         1.219668
 C         4.088847        -0.661796         0.103531
 O         3.231066        -1.748104        -0.416687
 C         1.811946        -1.446454        -0.382286
 H        -0.203092         1.337701        -0.268873
 H        -0.310022        -0.172414        -1.138743
 H        -0.546294        -0.154815         0.633862
 H         2.435887         0.438142        -2.096598
 H         1.980003         1.891019        -1.067073
 H         4.725461         1.346637        -0.722800
 H         4.065817         0.444231         1.993532
 H         5.121079        -0.981021         0.468636
 H         1.554582        -1.680689        -1.541334
 H         1.311393        -2.156564         0.232438
