19
Iteration:  4459
 C         0.003031         0.264003        -0.109497
 C         1.521407        -0.080207        -0.135058
 C         2.286745         0.000436        -1.580483
 C         3.684132         0.149487        -1.082013
 C         3.682763         0.835999         0.225554
 O         2.296582         0.950624         0.567126
 C         4.098352        -0.657818         0.212028
 O         3.188081        -1.447095         0.874839
 C         1.753201        -1.350252         0.541240
 H        -0.510584        -0.258695        -0.958771
 H        -0.446373        -0.259838         0.732919
 H        -0.129557         1.299294        -0.083733
 H         2.215488        -0.886888        -2.234576
 H         1.868407         0.964949        -2.025787
 H         4.484486         0.419469        -1.687334
 H         4.245079         1.817186         0.397510
 H         5.089008        -1.049878         0.275411
 H         1.322928        -2.175310         0.005953
 H         1.179202        -1.478557         1.535819
