19
Iteration:  2274
 C         0.141365         0.268876        -0.191809
 C         1.558306         0.094019        -0.209680
 C         2.468210         1.054018        -0.945186
 C         3.783978         0.751022        -0.310326
 C         3.406700         0.255786         1.064961
 O         1.975162         0.226639         1.204913
 C         4.038758        -0.740089         0.094226
 O         3.258998        -1.811414        -0.444877
 C         1.884122        -1.353892        -0.588223
 H        -0.150043         1.287323         0.272513
 H        -0.444797         0.073177        -1.134153
 H        -0.092892        -0.423324         0.559986
 H         2.387652         0.951061        -2.113943
 H         2.172672         2.146652        -0.832094
 H         4.538841         1.489360        -0.529118
 H         3.837127         0.581527         2.019504
 H         5.132559        -1.006922         0.212265
 H         1.601112        -1.262190        -1.678638
 H         1.311644        -2.088975        -0.030058
