19
Iteration:   412charge 0 multiplicity 1
 C         0.091245         0.398369        -0.274704
 C         1.519041         0.119999        -0.060248
 C         2.514786         1.306125         0.115268
 C         3.739639         0.605402         0.604593
 C         3.287251        -0.709696         1.141937
 O         1.825953        -0.738494         1.097140
 C         4.052756        -0.660465        -0.127215
 O         3.453503        -0.989005        -1.311291
 C         2.006226        -0.603652        -1.316830
 H        -0.326228         0.299342        -1.308405
 H        -0.419330        -0.331298         0.428387
 H        -0.173930         1.381854        -0.008033
 H         2.727759         1.780226        -0.871999
 H         2.171290         2.015609         0.819641
 H         4.529782         1.182351         0.998164
 H         3.626861        -1.272388         1.977891
 H         5.096496        -0.986419        -0.144202
 H         1.680177        -0.003934        -2.200030
 H         1.502022        -1.557650        -1.409503
