19
Iteration:  3390
 C         0.011312         0.288804        -0.160026
 C         1.547100         0.028188        -0.260127
 C         2.294194         0.397838        -1.444887
 C         3.769425         0.386591        -0.885651
 C         3.564162         0.708704         0.695634
 O         2.152253         0.834749         0.856411
 C         4.074979        -0.655358         0.190495
 O         3.247684        -1.856142         0.373595
 C         1.854449        -1.452437         0.201776
 H        -0.149511         1.259987        -0.685629
 H        -0.602161        -0.435720        -0.798814
 H        -0.341594         0.444875         0.930213
 H         2.087811        -0.164496        -2.314873
 H         2.021296         1.465390        -1.750178
 H         4.615668         0.825746        -1.454999
 H         4.127170         1.383317         1.279137
 H         5.171308        -0.822367         0.339873
 H         1.279522        -2.169321        -0.522412
 H         1.428823        -1.506212         1.136518
