19
Iteration:  3721charge 0 multiplicity 1
 C         0.064270         0.259940        -0.229015
 C         1.535427         0.053952        -0.226904
 C         2.312610         0.178878        -1.517872
 C         3.708764         0.304337        -0.886025
 C         3.518735         0.698751         0.578304
 O         2.166703         1.006629         0.710582
 C         4.017975        -0.690892         0.156264
 O         3.194797        -1.799416         0.300134
 C         1.956821        -1.337014         0.645220
 H        -0.110958         1.135509         0.508452
 H        -0.314987         0.623097        -1.198524
 H        -0.519265        -0.616072         0.116900
 H         2.152719        -0.723821        -2.277205
 H         1.895361         1.084512        -2.090779
 H         4.507050         0.604088        -1.568046
 H         4.141234         1.261295         1.165357
 H         5.083580        -0.791262         0.526604
 H         1.434611        -2.184353         0.541222
 H         1.991241        -0.947689         1.737966
