19
Iteration:   849
 C         0.042807         0.456495        -0.071029
 C         1.566653         0.089942        -0.230734
 C         2.409207         1.441436        -0.114089
 C         3.717567         0.799726         0.297941
 C         3.304626        -0.387059         1.241285
 O         1.881115        -0.717200         1.018505
 C         4.132541        -0.711290        -0.055759
 O         3.309737        -1.429158        -0.940381
 C         2.132456        -0.809486        -1.368811
 H        -0.644834         0.000171        -0.738208
 H        -0.222037         0.341144         1.007937
 H        -0.011364         1.509317        -0.100646
 H         2.372724         2.069059        -1.091631
 H         1.995686         2.078059         0.699524
 H         4.486369         1.538538         0.407641
 H         3.692213        -0.506736         2.313636
 H         5.174885        -1.120091        -0.060584
 H         2.393233        -0.207634        -2.306874
 H         1.453463        -1.594079        -1.912537
