19
Iteration:  2865
 C         0.124912         0.319753        -0.166495
 C         1.557587         0.092681        -0.196375
 C         2.364527         0.810215        -1.262341
 C         3.705865         0.615221        -0.663440
 C         3.451506         0.478501         0.843676
 O         2.045346         0.492941         1.043702
 C         4.080488        -0.724303         0.117493
 O         3.262657        -1.851484         0.068461
 C         1.895503        -1.476510        -0.153558
 H        -0.298789        -0.207527        -1.084517
 H        -0.286005        -0.189065         0.673598
 H        -0.168454         1.445898        -0.210334
 H         2.175785         0.383516        -2.358512
 H         2.181379         1.837809        -1.264422
 H         4.548023         1.162494        -1.068617
 H         4.111902         1.062132         1.497600
 H         5.118959        -0.891327         0.185767
 H         1.615006        -2.025172        -1.142764
 H         1.328035        -1.869919         0.635929
