19
Iteration:  2082
 C         0.067306         0.396850        -0.188759
 C         1.533970         0.087698        -0.129078
 C         2.428621         1.115429        -0.799124
 C         3.787411         0.787216        -0.208428
 C         3.398466         0.126209         1.134636
 O         1.990995         0.033968         1.156324
 C         4.047616        -0.678482         0.028575
 O         3.342014        -1.744034        -0.591708
 C         1.890458        -1.364121        -0.686389
 H        -0.338532         0.942440         0.669684
 H        -0.103023         0.959213        -1.104853
 H        -0.531494        -0.493052        -0.321685
 H         2.346237         1.178466        -1.945242
 H         2.248590         2.184424        -0.554709
 H         4.540714         1.554279        -0.252099
 H         3.833010         0.300125         2.083005
 H         5.111554        -1.000908         0.237846
 H         1.623404        -1.487887        -1.732517
 H         1.514713        -2.081525        -0.060920
