19
Iteration:  2623charge 0 multiplicity 1
 C         0.086122         0.278346        -0.164663
 C         1.520947         0.078465        -0.161131
 C         2.380503         0.965654        -1.114176
 C         3.790760         0.610035        -0.602986
 C         3.489158         0.454650         0.906832
 O         2.100515         0.317289         1.120621
 C         4.027172        -0.683009         0.120908
 O         3.197728        -1.803923         0.000697
 C         1.934712        -1.461553        -0.483005
 H        -0.541516        -0.483135        -0.728757
 H        -0.381359         0.423126         0.830870
 H        -0.243386         1.270290        -0.632182
 H         2.195055         0.761880        -2.286653
 H         2.151969         1.991349        -0.954540
 H         4.595100         1.221974        -1.065280
 H         4.053510         0.813788         1.789416
 H         5.046500        -0.960951         0.297804
 H         1.841280        -1.736801        -1.499149
 H         1.179912        -2.073156         0.171579
