19
Iteration:  1292
 C         0.040809         0.299883        -0.315645
 C         1.567656         0.038716        -0.101762
 C         2.493345         1.224826        -0.412501
 C         3.828469         0.783164         0.113886
 C         3.393745        -0.124585         1.255033
 O         2.003379        -0.219109         1.254520
 C         4.038951        -0.648538        -0.042088
 O         3.258636        -1.545582        -0.884225
 C         1.892318        -1.075701        -1.094074
 H        -0.530983        -0.565580        -0.716668
 H        -0.512181         0.742708         0.557599
 H        -0.198512         1.161359        -1.028152
 H         2.690790         1.477020        -1.520951
 H         2.105746         2.090978         0.128410
 H         4.609104         1.569853         0.254096
 H         3.918441        -0.315273         2.203062
 H         5.062033        -1.032115         0.065144
 H         1.747955        -0.652645        -2.074644
 H         1.270868        -1.874956        -0.760756
