19
Iteration:  2387
 C         0.075406         0.225099        -0.226794
 C         1.561418         0.070628        -0.102540
 C         2.453548         0.962109        -1.086746
 C         3.864301         0.730979        -0.379765
 C         3.475057         0.344996         1.086202
 O         2.112011         0.241644         1.242799
 C         3.960546        -0.681037         0.108203
 O         3.183120        -1.696302        -0.349527
 C         1.814600        -1.392699        -0.602831
 H        -0.302857        -0.749283        -0.420607
 H        -0.377959         0.512493         0.666756
 H        -0.177245         0.850113        -1.128419
 H         2.365703         0.721291        -2.070723
 H         2.257417         2.104500        -1.079297
 H         4.703747         1.326076        -0.743145
 H         4.026879         0.497805         1.976319
 H         4.869961        -1.117653         0.345467
 H         1.564168        -1.579776        -1.569488
 H         1.308564        -2.053131         0.063397
