19
Iteration:  2382
 C         0.082429         0.214874        -0.241699
 C         1.578392         0.075149        -0.124353
 C         2.499545         0.966682        -1.062955
 C         3.861330         0.718282        -0.362357
 C         3.485441         0.335830         1.082990
 O         2.072742         0.248859         1.218054
 C         3.972051        -0.683058         0.106784
 O         3.191369        -1.672136        -0.395499
 C         1.792523        -1.382144        -0.522997
 H        -0.427486        -0.824408        -0.270175
 H        -0.418186         0.669462         0.691996
 H        -0.232818         0.786487        -1.090039
 H         2.304881         0.671776        -2.207811
 H         2.176529         2.006725        -0.946220
 H         4.699872         1.304234        -0.743911
 H         4.018880         0.572074         2.039627
 H         4.994687        -1.150466         0.309746
 H         1.477282        -1.614413        -1.660281
 H         1.340744        -2.234865         0.090300
