19
Iteration:  4327
 C         0.035191         0.322315        -0.277696
 C         1.470406        -0.050310        -0.049819
 C         2.300326        -0.004187        -1.381302
 C         3.713518         0.223064        -1.013887
 C         3.600706         0.809675         0.304115
 O         2.158230         1.066949         0.566162
 C         4.059018        -0.616828         0.229291
 O         3.263977        -1.737475         0.446215
 C         1.891194        -1.331333         0.780199
 H        -0.710695        -0.065268         0.491585
 H        -0.069764         1.461822        -0.369726
 H        -0.209790        -0.098301        -1.194172
 H         2.084285        -0.951128        -1.925082
 H         1.915692         0.815628        -1.996044
 H         4.563001         0.350307        -1.735683
 H         4.202376         1.575326         0.673060
 H         5.142147        -0.899130         0.352497
 H         1.310020        -2.187710         0.385107
 H         1.596903        -1.119940         1.908843
