19
Iteration:  3061
 C        -0.041372         0.330632        -0.183112
 C         1.525510         0.010449        -0.131626
 C         2.344348         0.535026        -1.291041
 C         3.819177         0.588538        -0.773502
 C         3.546416         0.561325         0.750168
 O         2.125714         0.607669         1.046862
 C         4.102461        -0.683510         0.121292
 O         3.237776        -1.747652         0.230145
 C         1.850982        -1.473614        -0.147608
 H        -0.519400        -0.635577        -0.223934
 H        -0.396928         0.834522         0.661084
 H        -0.270368         0.984018        -1.053287
 H         2.241852        -0.051148        -2.229292
 H         2.067746         1.508983        -1.778162
 H         4.615994         1.218888        -1.273173
 H         4.087806         1.169758         1.440839
 H         5.182099        -0.920879         0.330809
 H         1.669706        -1.805891        -1.094861
 H         1.158212        -2.123289         0.545072
