19
Iteration:  4945
 C         0.126210         0.328779        -0.259281
 C         1.525533         0.010452        -0.094892
 C         2.304804        -0.246080        -1.428160
 C         3.635566         0.128334        -1.086411
 C         3.534975         0.806026         0.328882
 O         2.183740         1.221037         0.561864
 C         4.059232        -0.581975         0.174891
 O         3.219810        -1.740572         0.585166
 C         1.892543        -1.247397         0.765985
 H         0.048678         1.197660        -0.790108
 H        -0.423215        -0.614595        -0.683089
 H        -0.421293         0.563278         0.696139
 H         1.985929        -1.244888        -1.687650
 H         1.845181         0.333220        -2.179700
 H         4.304036         0.614533        -1.857501
 H         4.419843         1.390758         0.634933
 H         5.164134        -0.719186         0.358606
 H         1.340971        -2.087169         0.411025
 H         1.754733        -1.110617         1.813054
