19
Iteration:  3610charge 0 multiplicity 1
 C         0.053963         0.171709        -0.179798
 C         1.546310         0.065710        -0.108610
 C         2.303782         0.295109        -1.500122
 C         3.737516         0.231965        -0.986376
 C         3.586907         0.792322         0.382065
 O         2.243873         0.930944         0.884913
 C         4.064471        -0.671515         0.199005
 O         3.171211        -1.706887         0.582587
 C         1.795392        -1.408983         0.278584
 H        -0.356530         0.320681        -1.184145
 H        -0.543402        -0.737905         0.261309
 H        -0.132102         1.063678         0.359375
 H         2.248915        -0.488739        -2.282108
 H         1.987289         1.312553        -1.898783
 H         4.531229         0.646566        -1.613309
 H         4.303714         1.574395         0.798310
 H         5.089380        -0.881673         0.375886
 H         1.464723        -1.944650        -0.611148
 H         1.129752        -1.786643         1.192048
