19
Iteration:  4759charge 0 multiplicity 1
 C        -0.024181         0.308369        -0.198660
 C         1.466266         0.058140        -0.083604
 C         2.184038        -0.227187        -1.412737
 C         3.724256         0.030494        -1.050375
 C         3.615521         0.837009         0.224160
 O         2.205554         1.181723         0.416173
 C         4.115122        -0.570671         0.316031
 O         3.292560        -1.685004         0.625997
 C         1.907751        -1.273743         0.746317
 H        -0.514906        -0.157212         0.594255
 H        -0.161938         1.396474        -0.244487
 H        -0.482788         0.044185        -1.200983
 H         2.085738        -1.318529        -1.741537
 H         1.693322         0.392665        -2.214497
 H         4.414731         0.221147        -1.852789
 H         4.301169         1.619736         0.592922
 H         5.185533        -0.684953         0.470137
 H         1.246908        -2.011433         0.482434
 H         1.823671        -1.011363         1.825076
