19
Iteration:   902
 C         0.061445         0.245534        -0.246202
 C         1.569438         0.165108        -0.127421
 C         2.560361         1.342008        -0.134549
 C         3.853689         0.721279         0.328144
 C         3.286918        -0.395270         1.276446
 O         1.927321        -0.442674         1.174816
 C         3.996022        -0.707705        -0.033913
 O         3.329404        -1.284854        -1.125412
 C         1.911229        -0.872633        -1.295120
 H        -0.298226         0.973735        -0.967877
 H        -0.419649        -0.751293        -0.568127
 H        -0.376525         0.613833         0.685024
 H         2.562091         1.714797        -1.173862
 H         2.195595         2.040587         0.646113
 H         4.717018         1.312931         0.554486
 H         3.756165        -0.691721         2.251913
 H         5.063711        -1.005995        -0.015313
 H         1.978026        -0.408281        -2.297901
 H         1.261974        -1.793757        -1.257525
