19
Iteration:  3486charge 0 multiplicity 1
 C         0.071182         0.248314        -0.130063
 C         1.593234        -0.031263        -0.181223
 C         2.352210         0.326797        -1.486195
 C         3.760497         0.334279        -0.880184
 C         3.560093         0.803075         0.574190
 O         2.202970         0.886529         0.795844
 C         4.003124        -0.651306         0.231364
 O         3.167149        -1.750101         0.328715
 C         1.815622        -1.457756         0.295086
 H        -0.340923        -0.321099         0.710109
 H        -0.174226         1.256178         0.014470
 H        -0.446483        -0.161335        -1.049021
 H         2.061457        -0.378918        -2.217536
 H         2.081590         1.353530        -1.943486
 H         4.648845         0.716300        -1.405451
 H         4.190253         1.432194         1.113204
 H         5.033879        -0.934506         0.542851
 H         1.346269        -2.180366        -0.314909
 H         1.230289        -1.454605         1.360472
