19
Iteration:  3785
 C         0.038037         0.371346        -0.179446
 C         1.520381        -0.011688        -0.136812
 C         2.314495         0.029243        -1.475785
 C         3.713880         0.280553        -1.003238
 C         3.570954         0.841935         0.450332
 O         2.203346         0.918388         0.785135
 C         4.056776        -0.593647         0.124802
 O         3.243655        -1.740911         0.525693
 C         1.830158        -1.376683         0.425888
 H        -0.384162        -0.061197         0.767745
 H        -0.000167         1.464079        -0.043049
 H        -0.518505         0.191130        -1.036939
 H         2.245315        -0.984986        -1.873860
 H         2.050217         0.777987        -2.269887
 H         4.556318         0.373548        -1.695075
 H         4.099849         1.545674         1.016975
 H         5.139440        -0.673845         0.440235
 H         1.187987        -2.112687        -0.245144
 H         1.360293        -1.473506         1.381574
