19
Iteration:  2277
 C         0.130808         0.273286        -0.204753
 C         1.567038         0.102183        -0.191387
 C         2.460320         1.026489        -0.983877
 C         3.802757         0.745965        -0.294074
 C         3.414061         0.257944         1.079415
 O         1.962205         0.210587         1.210021
 C         4.032620        -0.716786         0.085747
 O         3.255189        -1.791330        -0.461544
 C         1.883499        -1.342030        -0.573554
 H        -0.187122         1.218491         0.321013
 H        -0.393815         0.163355        -1.149872
 H        -0.218075        -0.503190         0.508960
 H         2.477853         0.873310        -2.008235
 H         2.252962         2.151188        -0.828831
 H         4.589326         1.477736        -0.567078
 H         3.962110         0.571398         2.027687
 H         5.137217        -0.975743         0.157821
 H         1.582650        -1.373014        -1.607136
 H         1.241746        -2.126161         0.033071
