19
Iteration:  3482
 C         0.086651         0.261606        -0.138469
 C         1.553080        -0.005326        -0.217436
 C         2.356655         0.351922        -1.465668
 C         3.755196         0.325619        -0.856935
 C         3.554979         0.766561         0.547966
 O         2.180225         0.885123         0.785068
 C         4.036954        -0.641390         0.228167
 O         3.204912        -1.770221         0.356498
 C         1.791705        -1.456684         0.301381
 H        -0.288548        -0.253008         0.793626
 H        -0.156982         1.348317        -0.056123
 H        -0.489317        -0.171720        -0.922864
 H         2.023074        -0.397746        -2.280510
 H         2.076003         1.294384        -1.808255
 H         4.531195         0.782719        -1.490233
 H         4.260004         1.450543         1.151528
 H         5.009078        -0.928769         0.540603
 H         1.354528        -2.252738        -0.402869
 H         1.320681        -1.562396         1.301447
