19
Iteration:   961
 C         0.093146         0.543942        -0.180143
 C         1.540772        -0.022835        -0.156951
 C         2.542022         1.135570        -0.399608
 C         3.826593         0.777430         0.483218
 C         3.268534        -0.413482         1.232800
 O         1.855760        -0.500427         1.172939
 C         4.020871        -0.698081        -0.022667
 O         3.393741        -0.968479        -1.261191
 C         1.966068        -1.144290        -1.052658
 H         0.320575         1.504056         0.250047
 H        -0.267883         0.725116        -1.089576
 H        -0.654776         0.018381         0.352498
 H         2.526337         1.290340        -1.513903
 H         2.031262         2.056926        -0.184936
 H         4.571271         1.482303         0.927461
 H         3.613344        -0.738105         2.158448
 H         4.976085        -1.200767         0.007417
 H         1.398194        -1.285518        -1.981178
 H         1.815150        -2.139172        -0.512075
