19
Iteration:  4665charge 0 multiplicity 1
 C         0.096938         0.369200        -0.178877
 C         1.582971        -0.046545        -0.074062
 C         2.189608        -0.140002        -1.541855
 C         3.551220         0.015188        -1.135357
 C         3.590323         0.874531         0.135372
 O         2.287377         1.035396         0.524203
 C         4.018390        -0.545620         0.255557
 O         3.285233        -1.483833         0.932675
 C         1.844907        -1.424109         0.611199
 H        -0.391504         0.102023         0.801269
 H         0.009116         1.446774        -0.577861
 H        -0.367256        -0.219302        -0.925869
 H         2.031738        -1.089599        -2.053186
 H         1.927230         0.666834        -2.179403
 H         4.439757         0.214383        -1.769840
 H         4.183652         1.707802         0.395411
 H         5.104555        -0.737017         0.438527
 H         1.511188        -2.379675         0.001972
 H         1.323864        -1.379852         1.587193
