19
Iteration:   880charge 0 multiplicity 1
 C         0.072135         0.382014        -0.137985
 C         1.552001         0.086763        -0.162655
 C         2.445903         1.382329        -0.175391
 C         3.735300         0.774074         0.373443
 C         3.342744        -0.361096         1.232354
 O         1.926080        -0.595015         1.079865
 C         4.092525        -0.722360        -0.082823
 O         3.274690        -1.418912        -0.991436
 C         2.059985        -0.772298        -1.327368
 H        -0.398078         0.590427        -1.075271
 H        -0.531734        -0.528461         0.190066
 H        -0.169650         1.260456         0.433221
 H         2.545505         1.723139        -1.218014
 H         2.070399         2.156693         0.529085
 H         4.488304         1.504546         0.569446
 H         3.765176        -0.611379         2.216000
 H         5.130343        -1.143479        -0.037244
 H         2.297397        -0.012767        -2.121111
 H         1.397979        -1.618735        -1.679010
