19
Iteration:   258
 C         0.023681         0.435136        -0.162993
 C         1.581235         0.125031        -0.159869
 C         2.402890         1.236384         0.371963
 C         3.696181         0.613204         0.600252
 C         3.282598        -0.726124         1.165552
 O         1.910230        -0.871991         0.913699
 C         4.039201        -0.661062        -0.112748
 O         3.359058        -1.056483        -1.274074
 C         2.190280        -0.397379        -1.519400
 H        -0.343297         0.773581        -1.199486
 H        -0.550557        -0.377741         0.320554
 H         0.022264         1.259223         0.486938
 H         2.362341         2.085108        -0.416301
 H         1.967583         1.639116         1.295604
 H         4.527999         1.246576         1.021012
 H         3.591221        -1.221160         2.132888
 H         5.072486        -1.039440        -0.186873
 H         2.404217         0.416191        -2.200611
 H         1.460977        -1.098720        -1.841833
