19
Iteration:  2000
 C         0.010102         0.305519        -0.152343
 C         1.538982         0.064409        -0.185656
 C         2.441134         1.181901        -0.678472
 C         3.795806         0.793374        -0.127734
 C         3.441699         0.155417         1.094048
 O         2.027555         0.082626         1.172723
 C         4.009322        -0.752363         0.010911
 O         3.253111        -1.762137        -0.512451
 C         1.977438        -1.295443        -0.922710
 H        -0.269854         0.649392        -1.146461
 H        -0.495453        -0.675287         0.074956
 H        -0.219257         1.093183         0.651606
 H         2.462601         1.164940        -1.736326
 H         2.107741         2.118963        -0.160327
 H         4.699119         1.356636        -0.339667
 H         3.863199         0.401908         2.108471
 H         5.088348        -1.030435        -0.016235
 H         1.837947        -1.101583        -1.953338
 H         1.279122        -2.192806        -0.631403
