19
Iteration:  3505
 C         0.052603         0.173158        -0.193246
 C         1.524844         0.050390        -0.095349
 C         2.438863         0.197872        -1.446601
 C         3.819783         0.434473        -0.914972
 C         3.608242         0.766317         0.564665
 O         2.199554         0.909083         0.887371
 C         4.008170        -0.607584         0.179082
 O         3.144744        -1.772360         0.229883
 C         1.727203        -1.359159         0.392684
 H        -0.540072        -0.694159         0.252593
 H        -0.267867         1.090138         0.238994
 H        -0.251141         0.207712        -1.240454
 H         2.392362        -0.776341        -2.061782
 H         1.974840         0.927041        -2.074767
 H         4.598305         0.659074        -1.676946
 H         4.256300         1.462349         1.176077
 H         5.024584        -0.953437         0.362199
 H         1.116468        -2.055087        -0.239411
 H         1.454048        -1.537518         1.436018
