19
Iteration:  4691charge 0 multiplicity 1
 C        -0.068698         0.297418        -0.216442
 C         1.541566        -0.027666        -0.020985
 C         2.242638        -0.200161        -1.398228
 C         3.706859         0.026816        -1.154513
 C         3.601019         0.870976         0.184536
 O         2.206451         1.217083         0.462134
 C         4.111189        -0.638848         0.219216
 O         3.325935        -1.620840         0.794641
 C         1.838310        -1.274685         0.699913
 H        -0.745455        -0.298272         0.501396
 H        -0.095010         1.340921        -0.212784
 H        -0.428612         0.083511        -1.275088
 H         2.017919        -1.175748        -1.825166
 H         1.880524         0.665017        -2.071322
 H         4.483693         0.219173        -1.883379
 H         4.240332         1.704648         0.585560
 H         5.132741        -0.991749         0.320014
 H         1.333606        -2.164153         0.186075
 H         1.417064        -1.178775         1.691217
