19
Iteration:  4972charge 0 multiplicity 1
 C        -0.022392         0.282627        -0.099678
 C         1.461744        -0.067062        -0.155118
 C         2.360769        -0.112054        -1.518835
 C         3.807584         0.159322        -1.081008
 C         3.623169         0.890661         0.231558
 O         2.232475         0.995701         0.511179
 C         4.085259        -0.563307         0.266556
 O         3.123846        -1.649901         0.576615
 C         1.833561        -1.255709         0.770870
 H        -0.305298         0.868776        -1.081236
 H        -0.499546        -0.602554         0.018088
 H        -0.249908         0.992818         0.708874
 H         2.118872        -1.092225        -2.028204
 H         1.936030         0.730016        -2.186221
 H         4.609984         0.220420        -1.793205
 H         4.346302         1.579214         0.662159
 H         5.099835        -0.705857         0.644868
 H         1.207285        -2.272950         0.689216
 H         1.661088        -0.881711         1.862775
