19
Iteration:   638
 C         0.108410         0.319464        -0.224093
 C         1.536317         0.159863        -0.141630
 C         2.444658         1.410607         0.037158
 C         3.775677         0.687451         0.379741
 C         3.349984        -0.469385         1.279359
 O         1.942230        -0.792399         1.066180
 C         4.000632        -0.697917        -0.092415
 O         3.275430        -1.317111        -1.057220
 C         2.072853        -0.565405        -1.434186
 H        -0.346908         0.060487        -1.220127
 H        -0.495546        -0.133934         0.597851
 H        -0.216306         1.370406        -0.236858
 H         2.489354         2.028680        -0.871944
 H         2.129446         2.131767         0.915705
 H         4.583786         1.289701         0.782283
 H         3.813335        -0.711666         2.306692
 H         5.029186        -0.898441        -0.163663
 H         2.212130         0.125175        -2.246965
 H         1.272800        -1.321219        -1.799575
