19
Iteration:   170charge 0 multiplicity 1
 C         0.133965         0.472946        -0.268855
 C         1.572786         0.046536        -0.072152
 C         2.510043         1.237047         0.271740
 C         3.741266         0.460661         0.768112
 C         3.197516        -0.938264         1.093096
 O         1.745324        -0.879869         1.008623
 C         4.056708        -0.673624        -0.141464
 O         3.488821        -0.452259        -1.445854
 C         2.055716        -0.643045        -1.335648
 H        -0.193071         0.924980         0.711228
 H         0.015214         1.340122        -0.909463
 H        -0.570995        -0.300655        -0.500875
 H         2.647688         1.929011        -0.642147
 H         2.079510         1.933326         1.022766
 H         4.590786         0.945236         1.213020
 H         3.463846        -1.697781         1.836019
 H         4.984405        -1.104758        -0.151606
 H         1.690228        -0.147174        -2.217235
 H         1.746616        -1.706033        -1.303635
