19
Iteration:  4421charge 0 multiplicity 1
 C         0.142420         0.369570        -0.190890
 C         1.580416        -0.024478        -0.113805
 C         2.140058        -0.044784        -1.526838
 C         3.601616         0.039375        -1.062598
 C         3.568873         0.830892         0.304506
 O         2.211997         1.061033         0.643238
 C         4.049234        -0.554305         0.231237
 O         3.296654        -1.608187         0.843835
 C         1.873804        -1.433031         0.479614
 H        -0.520228        -0.502315        -0.350709
 H        -0.308071         1.047259         0.626720
 H         0.087390         1.041878        -1.192323
 H         1.868397        -0.877920        -2.228824
 H         1.880479         0.886650        -1.990309
 H         4.439805         0.332081        -1.806168
 H         4.144949         1.700456         0.302710
 H         5.143525        -0.779452         0.263269
 H         1.704717        -2.207154        -0.335266
 H         1.368751        -1.702521         1.362947
