19
Iteration:  4627charge 0 multiplicity 1
 C        -0.009269         0.357723        -0.050999
 C         1.535339        -0.049324        -0.198925
 C         2.305204        -0.127641        -1.590105
 C         3.741999         0.077495        -1.113721
 C         3.596870         0.817785         0.141068
 O         2.277805         0.957839         0.529812
 C         4.048617        -0.602277         0.209749
 O         3.214344        -1.370445         0.989627
 C         1.809273        -1.405153         0.549857
 H        -0.303392         0.924939         0.824016
 H        -0.466358         0.870043        -0.904825
 H        -0.567605        -0.632856         0.141851
 H         2.053002        -1.104774        -2.067542
 H         1.918015         0.794689        -2.146134
 H         4.444559         0.367243        -1.895339
 H         4.302925         1.620627         0.445780
 H         5.109786        -0.876895         0.234166
 H         1.545598        -2.309146         0.041273
 H         1.181782        -1.484701         1.542068
