19
Iteration:  2957
 C         0.055059         0.345553        -0.248985
 C         1.548891        -0.048302        -0.160631
 C         2.353113         0.631511        -1.259728
 C         3.803878         0.637550        -0.658118
 C         3.498504         0.539873         0.816460
 O         2.087871         0.650338         1.000745
 C         4.061860        -0.699010         0.176083
 O         3.239024        -1.801445        -0.151382
 C         1.854120        -1.580072         0.098338
 H        -0.065071         1.252295         0.312880
 H        -0.158960         0.561487        -1.350270
 H        -0.517117        -0.427415         0.237152
 H         2.222609         0.118759        -2.220735
 H         2.051780         1.769675        -1.231222
 H         4.600311         1.287731        -0.996686
 H         3.982659         1.183710         1.495133
 H         5.115709        -1.000735         0.414698
 H         1.316194        -2.069588        -0.640582
 H         1.537002        -1.822549         1.101847
