19
Iteration:  1917
 C         0.145189         0.331220        -0.137232
 C         1.608897         0.039490        -0.134949
 C         2.549897         1.059873        -0.795534
 C         3.798621         0.703454        -0.073783
 C         3.260546         0.076230         1.212019
 O         1.864971         0.072222         1.247246
 C         3.992184        -0.732048         0.048875
 O         3.324508        -1.476264        -0.971901
 C         1.973916        -1.328368        -0.645173
 H        -0.583670        -0.533790        -0.208467
 H        -0.093607         0.963814         0.671974
 H        -0.061381         0.866742        -1.015155
 H         2.523718         0.922768        -1.896005
 H         2.257775         2.097682        -0.792030
 H         4.677242         1.388081        -0.183439
 H         3.731121         0.065995         2.278278
 H         4.946210        -1.188693         0.229741
 H         1.241988        -1.570903        -1.548093
 H         1.793978        -1.989296         0.227026
