19
Iteration:  3426
 C         0.117223         0.341737        -0.189655
 C         1.592363        -0.068430        -0.129481
 C         2.322408         0.270983        -1.408516
 C         3.751939         0.437708        -0.907114
 C         3.575726         0.815714         0.544594
 O         2.223536         0.676154         0.945150
 C         4.107098        -0.581307         0.129065
 O         3.125734        -1.686309         0.502614
 C         1.729895        -1.465339         0.082610
 H        -0.031122         1.279352         0.340025
 H        -0.181064         0.467169        -1.319337
 H        -0.537969        -0.403194         0.175818
 H         2.057975        -0.655315        -2.064595
 H         1.877886         1.136802        -1.698480
 H         4.483315         0.910266        -1.543218
 H         4.123063         1.657426         1.042756
 H         5.127268        -0.966475         0.309258
 H         1.437265        -2.132209        -0.865977
 H         1.120370        -1.771748         0.896464
