19
Iteration:  1445
 C         0.085309         0.328802        -0.079564
 C         1.543468         0.069548        -0.212665
 C         2.433259         1.329545        -0.585630
 C         3.741149         0.811279        -0.053258
 C         3.356571        -0.037701         1.209300
 O         1.966553        -0.314108         1.177051
 C         4.010544        -0.738469         0.068758
 O         3.239900        -1.652750        -0.662620
 C         2.107433        -1.023418        -1.114772
 H        -0.228870         1.304871         0.055650
 H        -0.427692         0.029106        -0.997426
 H        -0.384831        -0.106355         0.817625
 H         2.578448         1.493592        -1.686674
 H         2.194319         2.239906         0.013683
 H         4.656792         1.330766        -0.109445
 H         3.804848         0.068901         2.174038
 H         5.053315        -1.218422         0.071784
 H         2.228660        -0.578430        -2.155506
 H         1.302829        -1.635097        -1.330654
