19
Iteration:  3491
 C         0.055575         0.202984        -0.134054
 C         1.611969        -0.031125        -0.133993
 C         2.349162         0.306802        -1.498273
 C         3.786174         0.361335        -0.923308
 C         3.568073         0.803051         0.586386
 O         2.215188         0.889244         0.819717
 C         3.975120        -0.645270         0.241954
 O         3.127924        -1.741874         0.301322
 C         1.823622        -1.435201         0.313808
 H        -0.454841        -0.408188         0.636843
 H        -0.197994         1.339523         0.090201
 H        -0.307073        -0.059243        -1.119094
 H         2.214501        -0.541629        -2.281991
 H         2.123242         1.244316        -1.946939
 H         4.744588         0.608950        -1.364463
 H         4.189567         1.590931         1.170678
 H         4.989659        -0.915892         0.444253
 H         1.215768        -2.200840        -0.323830
 H         1.378580        -1.390272         1.208852
