19
Iteration:  3923charge 0 multiplicity 1
 C         0.016861         0.467282        -0.160946
 C         1.476348        -0.029182        -0.099523
 C         2.327074        -0.154477        -1.499032
 C         3.702453         0.270223        -0.968930
 C         3.589982         0.833152         0.428709
 O         2.167456         1.040724         0.651007
 C         4.079651        -0.579380         0.174037
 O         3.281249        -1.720159         0.403109
 C         1.826370        -1.411482         0.637729
 H        -0.075651         1.196530        -0.937781
 H        -0.684870        -0.388136        -0.523427
 H        -0.318827         0.864141         0.804941
 H         2.323451        -1.249732        -1.908184
 H         2.077500         0.626718        -2.268612
 H         4.567082         0.465025        -1.624187
 H         4.154516         1.591077         0.886931
 H         5.145973        -0.895346         0.441862
 H         1.390500        -2.323807         0.256014
 H         1.438998        -1.384675         1.739954
