19
Iteration:  2324
 C         0.136966         0.453033        -0.273892
 C         1.534322        -0.042049        -0.107310
 C         2.514334         0.790913        -1.011866
 C         3.771954         0.764737        -0.252648
 C         3.381125         0.263606         1.142899
 O         1.940546         0.246750         1.268602
 C         4.065588        -0.678434         0.013045
 O         3.284495        -1.575926        -0.720294
 C         1.890929        -1.479203        -0.367943
 H        -0.341623         0.613778         0.644874
 H         0.197216         1.362675        -0.859284
 H        -0.588552        -0.251237        -0.871309
 H         2.505483         0.265298        -1.996112
 H         2.096523         1.758608        -1.067171
 H         4.535159         1.528866        -0.394667
 H         3.821211         0.550371         2.062131
 H         5.004565        -1.052231         0.258758
 H         1.237775        -2.029412        -1.086651
 H         1.806686        -1.992197         0.695831
