19
Iteration:  1428charge 0 multiplicity 1
 C         0.043709         0.311859        -0.184647
 C         1.576994         0.151672        -0.177500
 C         2.434020         1.388140        -0.439065
 C         3.799379         0.774757        -0.026454
 C         3.390738        -0.087940         1.150953
 O         1.961525        -0.240789         1.146389
 C         4.042542        -0.697583        -0.022049
 O         3.265951        -1.734580        -0.637035
 C         1.981923        -1.086044        -1.116857
 H        -0.175179         1.432311        -0.388595
 H        -0.479369        -0.370639        -0.930928
 H        -0.203091        -0.008980         0.857596
 H         2.251633         1.849792        -1.476142
 H         2.174834         2.222318         0.226949
 H         4.614753         1.538130         0.126167
 H         3.735678        -0.004614         2.179359
 H         5.062469        -0.872682         0.056659
 H         2.222205        -0.855449        -2.147656
 H         1.340640        -2.048245        -1.000295
