19
Iteration:  2044charge 0 multiplicity 1
 C         0.111714         0.298465        -0.093501
 C         1.580835         0.106975        -0.167955
 C         2.455377         1.150967        -0.823477
 C         3.734044         0.755476        -0.198370
 C         3.450692         0.256289         1.122181
 O         2.070377        -0.069633         1.169832
 C         4.034072        -0.701117         0.095266
 O         3.135734        -1.738630        -0.410803
 C         1.935480        -1.251080        -0.979412
 H        -0.356274         1.272929        -0.283645
 H        -0.209774        -0.306082        -0.985610
 H        -0.181880        -0.207480         0.887390
 H         2.463918         0.966842        -1.856933
 H         2.151433         2.188841        -0.539096
 H         4.591258         1.451812        -0.310795
 H         3.853142         0.527080         2.169250
 H         5.045253        -1.070506         0.118532
 H         2.143271        -0.970396        -2.014117
 H         0.991196        -1.968627        -0.908528
