19
Iteration:  2352charge 0 multiplicity 1
 C         0.033989         0.398561        -0.206085
 C         1.523219         0.074573        -0.174895
 C         2.484785         0.949018        -1.043441
 C         3.807054         0.759869        -0.256101
 C         3.396093         0.240950         1.090281
 O         1.979216         0.344895         1.179687
 C         4.027165        -0.743010         0.049564
 O         3.347859        -1.714088        -0.633713
 C         1.918253        -1.543605        -0.368276
 H        -0.569777        -0.310504         0.447035
 H        -0.157402         1.467298         0.011992
 H        -0.396302         0.317399        -1.170545
 H         2.401544         0.538245        -2.082294
 H         2.054070         1.998592        -0.809448
 H         4.628933         1.480592        -0.427504
 H         3.864403         0.329808         2.096387
 H         4.997417        -1.096823         0.466823
 H         1.310905        -2.098687        -1.069179
 H         1.768168        -1.995862         0.570722
