19
Iteration:  1469charge 0 multiplicity 1
 C         0.027757         0.333461        -0.062590
 C         1.550647         0.048545        -0.197145
 C         2.528182         1.172243        -0.629713
 C         3.779870         0.804164         0.095240
 C         3.360972        -0.032681         1.236377
 O         1.992554        -0.205224         1.169279
 C         4.098514        -0.673310         0.024822
 O         3.245918        -1.587515        -0.655921
 C         1.937428        -1.081491        -1.237334
 H        -0.330525         1.065711         0.626618
 H        -0.366317         0.625642        -1.102573
 H        -0.528995        -0.577416         0.303505
 H         2.589513         1.341763        -1.823181
 H         2.155978         2.060993        -0.138676
 H         4.691439         1.414565         0.197122
 H         3.789189        -0.019148         2.212742
 H         5.069665        -1.106819         0.117417
 H         1.884123        -0.710869        -2.273320
 H         1.248343        -1.919706        -1.219611
