19
Iteration:  3298
 C         0.063186         0.410802        -0.260618
 C         1.498616        -0.095058        -0.146023
 C         2.329008         0.393419        -1.289979
 C         3.760277         0.517407        -0.822504
 C         3.533684         0.740557         0.666678
 O         2.149245         0.784599         0.861206
 C         3.990028        -0.651281         0.245299
 O         3.277968        -1.834365         0.144285
 C         1.861838        -1.570431         0.252688
 H        -0.562912        -0.564334        -0.443506
 H        -0.077574         0.958493         0.676630
 H         0.002145         1.109737        -1.127679
 H         2.200994        -0.242447        -2.223383
 H         2.016991         1.401366        -1.661630
 H         4.574417         0.812364        -1.452520
 H         4.100314         1.521716         1.184585
 H         5.075289        -0.859501         0.223924
 H         1.369519        -2.231061        -0.391863
 H         1.447357        -1.688170         1.264055
