19
Iteration:  2917charge 0 multiplicity 1
 C         0.103058         0.301618        -0.220795
 C         1.553070         0.042561        -0.116199
 C         2.463040         0.502676        -1.306522
 C         3.823677         0.653175        -0.603531
 C         3.414468         0.532361         0.888026
 O         2.055572         0.633878         1.086594
 C         4.049995        -0.680279         0.157607
 O         3.212387        -1.757686        -0.303689
 C         1.841757        -1.469621         0.035899
 H        -0.088476         1.240461        -0.838713
 H        -0.544377        -0.545765        -0.462507
 H        -0.289781         0.541886         0.750976
 H         2.385254        -0.251852        -2.028776
 H         2.049273         1.367614        -1.872385
 H         4.534569         1.430125        -0.766196
 H         4.109500         1.018874         1.572915
 H         5.006186        -1.009490         0.491878
 H         1.311021        -2.144975        -0.665117
 H         1.669951        -1.886830         1.148238
