19
Iteration:   575
 C         0.100819         0.435250        -0.153741
 C         1.578126         0.070121        -0.126004
 C         2.595580         1.242937        -0.145080
 C         3.787523         0.615969         0.561100
 C         3.158918        -0.611428         1.218333
 O         1.762688        -0.669448         1.114209
 C         4.005269        -0.711725        -0.052036
 O         3.454839        -0.738461        -1.349661
 C         2.004176        -0.905275        -1.200610
 H        -0.445225        -0.409075         0.333731
 H         0.115953         1.535526         0.243427
 H        -0.184799         0.459004        -1.164452
 H         2.833358         1.474458        -1.204529
 H         2.161504         2.085513         0.405507
 H         4.664220         1.194392         0.926741
 H         3.707134        -1.250584         1.994250
 H         4.928330        -1.176859         0.093917
 H         1.495340        -0.719360        -2.233065
 H         1.890124        -1.942370        -1.003829
