19
Iteration:   382charge 0 multiplicity 1
 C         0.090133         0.485254        -0.233859
 C         1.533325         0.011098        -0.157522
 C         2.570755         1.279519         0.076391
 C         3.764879         0.607150         0.707681
 C         3.244184        -0.667750         1.180563
 O         1.831449        -0.806948         1.040281
 C         4.044967        -0.687258        -0.076363
 O         3.444303        -0.713290        -1.396449
 C         1.955330        -0.827327        -1.285873
 H        -0.727788        -0.180561        -0.649561
 H        -0.070722         0.750305         0.867008
 H         0.163543         1.463398        -0.834582
 H         2.810207         1.815786        -0.927531
 H         2.063345         2.075895         0.777137
 H         4.532174         1.162386         1.189861
 H         3.568720        -1.247437         2.070567
 H         4.999705        -1.112825        -0.130804
 H         1.459780        -0.537573        -2.195836
 H         1.762560        -1.928293        -1.157917
