19
Iteration:  4515
 C        -0.045877         0.380558        -0.256992
 C         1.507469        -0.012175        -0.047161
 C         2.255069        -0.198178        -1.322324
 C         3.737783         0.084308        -1.042080
 C         3.603476         0.899536         0.275238
 O         2.222968         1.168586         0.493614
 C         4.096955        -0.586407         0.250872
 O         3.243093        -1.665152         0.553725
 C         1.884200        -1.410319         0.693017
 H        -0.123588         0.976962        -1.258511
 H        -0.599959        -0.541667        -0.410137
 H        -0.356942         0.794274         0.677438
 H         2.050574        -1.179364        -1.744468
 H         1.794959         0.534805        -2.127990
 H         4.292702         0.293943        -1.962446
 H         4.253753         1.761034         0.453484
 H         5.036356        -0.743731         0.756342
 H         1.336791        -2.241748         0.259638
 H         1.816205        -1.209737         1.872661
