19
Iteration:  4349
 C         0.021179         0.273428        -0.217682
 C         1.526634        -0.035284        -0.054168
 C         2.307124        -0.090048        -1.437557
 C         3.730837         0.186558        -1.044710
 C         3.573878         0.837878         0.400503
 O         2.209911         1.250614         0.521828
 C         4.043702        -0.596452         0.218677
 O         3.253560        -1.804472         0.474783
 C         1.846306        -1.342736         0.675118
 H        -0.511130        -0.479882         0.431627
 H        -0.337851         1.282027         0.142652
 H        -0.267726         0.208357        -1.197726
 H         1.932029        -1.050984        -1.849725
 H         1.923885         0.738418        -2.053517
 H         4.540402         0.475726        -1.778165
 H         4.204124         1.574334         0.820448
 H         5.036160        -0.814934         0.702733
 H         1.185706        -2.169760         0.359288
 H         1.710231        -1.314987         1.867431
