19
Iteration:  3000charge 0 multiplicity 1
 C        -0.027807         0.254787        -0.183482
 C         1.497789         0.053130        -0.157660
 C         2.364417         0.625450        -1.376994
 C         3.758459         0.581501        -0.661436
 C         3.602838         0.556591         0.796148
 O         2.190676         0.564708         1.041955
 C         4.097346        -0.682569         0.139368
 O         3.200730        -1.740615         0.215987
 C         1.820039        -1.432598        -0.200578
 H        -0.421190         0.197002         0.826185
 H        -0.372755         1.261653        -0.613167
 H        -0.458692        -0.666873        -0.623432
 H         2.385833        -0.110141        -2.211053
 H         2.027414         1.652389        -1.533690
 H         4.486620         1.142972        -1.207630
 H         4.129611         1.152702         1.487316
 H         5.127818        -1.084689         0.178527
 H         1.692877        -1.865949        -1.252956
 H         1.206466        -1.971439         0.449007
