19
Iteration:  4979
 C        -0.068383         0.291478        -0.073116
 C         1.512682        -0.075088        -0.197235
 C         2.379593        -0.091469        -1.516706
 C         3.855865         0.107431        -1.134384
 C         3.592380         0.842174         0.227924
 O         2.250740         1.022094         0.523215
 C         4.057912        -0.536188         0.286678
 O         3.157402        -1.607543         0.588903
 C         1.773536        -1.301230         0.808951
 H        -0.403903         0.631007        -1.002632
 H        -0.716848        -0.666449         0.089376
 H        -0.126227         0.996735         0.709149
 H         2.233195        -0.982397        -2.137515
 H         2.095394         0.804364        -2.001065
 H         4.515683         0.463295        -1.922338
 H         4.372259         1.551303         0.625830
 H         5.059908        -0.754577         0.549136
 H         1.160346        -2.163060         0.582874
 H         1.461687        -0.975306         1.763982
