19
Iteration:  4405charge 0 multiplicity 1
 C         0.026425         0.383028        -0.175358
 C         1.500831        -0.085244        -0.129924
 C         2.286239        -0.001211        -1.471562
 C         3.687741         0.182975        -1.079682
 C         3.606598         0.888742         0.230903
 O         2.224067         0.949162         0.569419
 C         4.062731        -0.621551         0.201648
 O         3.258404        -1.597995         0.807530
 C         1.855745        -1.427006         0.547419
 H        -0.710791        -0.447605         0.020554
 H         0.017480         1.072789         0.633095
 H        -0.313043         0.802442        -1.079531
 H         2.066936        -0.928443        -1.987143
 H         1.885154         0.818036        -2.139994
 H         4.426367         0.368840        -1.793504
 H         4.168301         1.691399         0.790818
 H         5.073896        -0.860917         0.475709
 H         1.426757        -2.213507        -0.126952
 H         1.351403        -1.376555         1.580607
