19
Iteration:  1219charge 0 multiplicity 1
 C         0.089617         0.344074        -0.077781
 C         1.549807         0.062407        -0.191445
 C         2.531606         1.223515        -0.492301
 C         3.748075         0.795544         0.170326
 C         3.335371        -0.183191         1.265626
 O         1.969590        -0.368959         1.172436
 C         4.006156        -0.701606         0.053618
 O         3.285206        -1.485660        -0.872592
 C         1.982041        -0.960282        -1.240211
 H        -0.258137         0.568905         0.925319
 H        -0.189299         1.220143        -0.744640
 H        -0.540206        -0.452988        -0.481037
 H         2.517265         1.416112        -1.585892
 H         2.305083         2.345303        -0.045447
 H         4.532439         1.562950         0.243618
 H         3.740548        -0.153637         2.305278
 H         5.085017        -1.044913         0.136291
 H         2.009077        -0.570659        -2.343814
 H         1.226443        -1.847806        -1.196913
