19
Iteration:  1662
 C         0.046149         0.255934        -0.218701
 C         1.577493         0.108403        -0.240593
 C         2.452592         1.286305        -0.499881
 C         3.833721         0.792107        -0.100848
 C         3.431068         0.003083         1.169153
 O         2.003807        -0.092596         1.201735
 C         3.987422        -0.730754         0.033210
 O         3.214312        -1.680081        -0.596099
 C         1.967183        -1.171734        -1.045554
 H        -0.473750        -0.637194        -0.546252
 H        -0.269141         0.392177         0.852216
 H        -0.336825         1.126269        -0.832685
 H         2.331074         1.515291        -1.513290
 H         2.147298         2.267632        -0.016365
 H         4.831370         1.317851        -0.203967
 H         3.918159         0.041764         2.186047
 H         5.002107        -1.020685         0.078222
 H         2.011539        -0.872889        -2.121071
 H         1.217572        -1.945226        -0.864298
