19
Iteration:  3387charge 0 multiplicity 1
 C         0.041111         0.279778        -0.165487
 C         1.534850         0.018449        -0.223276
 C         2.287625         0.403404        -1.437502
 C         3.768115         0.376596        -0.864890
 C         3.538489         0.708738         0.676685
 O         2.149721         0.846025         0.830707
 C         4.064766        -0.659376         0.189141
 O         3.260412        -1.873052         0.349211
 C         1.866044        -1.435835         0.201080
 H        -0.240211         1.240196        -0.773013
 H        -0.540723        -0.427684        -0.697746
 H        -0.270593         0.551359         0.915880
 H         2.073658        -0.141415        -2.333298
 H         2.115861         1.547586        -1.760982
 H         4.583995         0.864481        -1.422200
 H         4.103337         1.446559         1.367971
 H         5.074021        -0.939420         0.406632
 H         1.350031        -2.125877        -0.493432
 H         1.401325        -1.519157         1.284884
