19
Iteration:  1924
 C         0.115099         0.367738        -0.124244
 C         1.584472         0.023703        -0.188598
 C         2.537258         1.005912        -0.792411
 C         3.818012         0.715465        -0.044580
 C         3.282130         0.043158         1.186787
 O         1.847073         0.123472         1.269053
 C         3.955504        -0.714975        -0.000318
 O         3.325803        -1.434187        -0.943438
 C         2.015024        -1.420822        -0.673238
 H        -0.522874        -0.454793        -0.250199
 H        -0.115989         0.858236         0.874664
 H         0.054763         1.196210        -0.918711
 H         2.677713         0.805373        -1.837605
 H         2.158717         2.143813        -0.650527
 H         4.654856         1.359799        -0.066037
 H         3.855966         0.115994         2.096444
 H         4.915688        -1.237869         0.327504
 H         1.429711        -1.699228        -1.515248
 H         1.847572        -2.001341         0.226190
