19
Iteration:  1146
 C         0.151331         0.416114        -0.336261
 C         1.547115         0.099358        -0.021441
 C         2.585855         1.133550        -0.411617
 C         3.784902         0.740462         0.304725
 C         3.280990        -0.327591         1.208902
 O         1.859414        -0.296383         1.324067
 C         3.996835        -0.722580        -0.078450
 O         3.350036        -1.067583        -1.293047
 C         1.936153        -1.250485        -0.876985
 H         0.038003         1.233885        -1.144571
 H        -0.473777        -0.431547        -0.691166
 H        -0.424334         0.705012         0.562846
 H         2.788303         1.291941        -1.444979
 H         2.203806         2.051998        -0.213865
 H         4.539508         1.491483         0.469809
 H         3.741924        -0.465697         2.240942
 H         5.010783        -1.200769         0.225875
 H         1.449587        -1.370844        -1.794026
 H         1.791529        -2.192029        -0.318169
