19
Iteration:  4113charge 0 multiplicity 1
 C        -0.039874         0.112494        -0.232586
 C         1.555108         0.093295        -0.101214
 C         2.260598        -0.100489        -1.423498
 C         3.726954         0.132204        -1.059389
 C         3.635993         0.850513         0.382725
 O         2.275162         1.158556         0.697692
 C         4.063181        -0.674476         0.150660
 O         3.165494        -1.696770         0.499628
 C         1.862756        -1.171175         0.608265
 H        -0.570276        -0.555959         0.459302
 H        -0.316676         1.017829         0.157143
 H        -0.426998         0.078088        -1.223374
 H         2.095635        -1.118457        -1.698737
 H         2.006061         0.569631        -2.287583
 H         4.625070         0.397969        -1.703852
 H         4.187786         1.686640         0.681570
 H         5.122520        -1.007303         0.369945
 H         1.192439        -1.977639         0.285963
 H         1.682988        -0.998309         1.783284
