19
Iteration:  4094charge 0 multiplicity 1
 C        -0.016918         0.275558        -0.245732
 C         1.513335        -0.030221        -0.081740
 C         2.233050         0.033177        -1.423912
 C         3.710866         0.187007        -1.059617
 C         3.667539         0.794104         0.275839
 O         2.259950         1.074879         0.611085
 C         4.072251        -0.618281         0.171931
 O         3.270009        -1.673543         0.633115
 C         1.779113        -1.347806         0.701962
 H        -0.617556        -0.458103         0.301554
 H        -0.453873         1.266330        -0.035349
 H        -0.221798         0.060894        -1.399300
 H         2.081475        -0.852349        -2.104194
 H         1.919177         0.900376        -1.967694
 H         4.384827         0.416356        -1.920282
 H         4.378333         1.474221         0.683835
 H         5.162727        -0.868981         0.369597
 H         1.256340        -2.147290         0.253233
 H         1.548280        -1.349201         1.734081
