19
Iteration:  2649
 C         0.092211         0.212118        -0.235588
 C         1.535792         0.020158        -0.129367
 C         2.393881         0.807232        -1.135948
 C         3.797136         0.696852        -0.516076
 C         3.539391         0.528509         0.924983
 O         2.185175         0.408199         1.196979
 C         4.001305        -0.697886         0.092817
 O         3.134883        -1.785752        -0.034056
 C         1.845220        -1.444479        -0.511913
 H        -0.324165         0.096912        -1.218456
 H        -0.542479        -0.333569         0.449877
 H        -0.161686         1.309619         0.144800
 H         2.344590         0.373305        -2.106286
 H         1.914077         1.871082        -1.151637
 H         4.611336         1.248568        -0.946067
 H         4.068396         1.105017         1.671934
 H         5.065547        -1.057964         0.105431
 H         1.718610        -1.632956        -1.572042
 H         1.147777        -2.052200         0.038524
