19
Iteration:  3824
 C         0.092596         0.397741        -0.107122
 C         1.529197        -0.077363        -0.220058
 C         2.231946         0.149050        -1.496282
 C         3.744653         0.212400        -1.031427
 C         3.609471         0.884606         0.338852
 O         2.212501         0.807637         0.715431
 C         4.041057        -0.570349         0.186889
 O         3.233986        -1.631178         0.745147
 C         1.804227        -1.469619         0.361333
 H        -0.630117        -0.382617         0.018467
 H         0.028772         1.039153         0.836532
 H        -0.228515         0.933883        -1.054608
 H         2.103269        -0.625216        -2.320648
 H         1.914689         1.144082        -1.824113
 H         4.426582         0.187971        -1.893550
 H         4.193078         1.619098         0.892107
 H         5.062526        -0.823549         0.448336
 H         1.535763        -2.215773        -0.289192
 H         1.237817        -1.640826         1.320329
