19
Iteration:  1610charge 0 multiplicity 1
 C         0.108246         0.347171        -0.163107
 C         1.614198         0.085635        -0.215412
 C         2.429820         1.235522        -0.602194
 C         3.750855         0.802353        -0.086409
 C         3.380188         0.010835         1.235131
 O         1.954499        -0.226518         1.252211
 C         4.052644        -0.715565         0.021331
 O         3.252466        -1.692261        -0.655798
 C         1.968590        -1.106463        -1.064261
 H        -0.340638        -0.198086         0.601678
 H        -0.070589         1.470821        -0.024294
 H        -0.334629         0.001363        -1.116363
 H         2.337153         1.517293        -1.649123
 H         2.214321         2.139187        -0.043793
 H         4.576447         1.608535        -0.159284
 H         3.862978         0.141764         2.256025
 H         5.056065        -1.011232         0.169912
 H         2.043900        -0.692692        -2.210295
 H         1.105219        -1.856813        -0.996630
