19
Iteration:  3563charge 0 multiplicity 1
 C         0.118324         0.397010        -0.174971
 C         1.511364        -0.074759        -0.133379
 C         2.397225         0.175262        -1.462694
 C         3.772024         0.420799        -0.948351
 C         3.500859         0.803775         0.499482
 O         2.122276         0.869626         0.781018
 C         4.008062        -0.639626         0.234194
 O         3.201327        -1.785138         0.298981
 C         1.867945        -1.504765         0.452736
 H        -0.549225        -0.251787        -0.693852
 H        -0.230204         0.414871         0.845352
 H         0.129861         1.426583        -0.620853
 H         2.138893        -0.615503        -2.125162
 H         1.922350         1.163113        -1.888789
 H         4.535374         0.963446        -1.495188
 H         4.172629         1.553016         0.836119
 H         5.060577        -0.883420         0.501885
 H         1.299272        -2.277383         0.095015
 H         1.653329        -1.407283         1.538708
