19
Iteration:   741
 C         0.154540         0.559799        -0.146016
 C         1.560671         0.037825        -0.106582
 C         2.486414         1.260193        -0.185473
 C         3.712634         0.678108         0.554917
 C         3.205159        -0.511300         1.246238
 O         1.812299        -0.663659         1.111697
 C         4.084660        -0.636478        -0.089830
 O         3.479998        -0.986285        -1.359069
 C         1.976064        -0.996423        -1.164179
 H         0.029824         1.397466         0.526509
 H        -0.075346         0.973971        -1.198141
 H        -0.543593        -0.294493         0.083914
 H         2.716150         1.312535        -1.303892
 H         2.009872         2.166992         0.181456
 H         4.489096         1.336377         0.915446
 H         3.577450        -1.089168         2.070080
 H         5.167899        -0.988951         0.056684
 H         1.513547        -0.864087        -2.125960
 H         1.693190        -1.907116        -0.709922
