19
Iteration:   788charge 0 multiplicity 1
 C         0.001280         0.314963        -0.280808
 C         1.590848         0.150024        -0.076000
 C         2.608604         1.258103        -0.148268
 C         3.823414         0.694809         0.494623
 C         3.276621        -0.548485         1.238373
 O         1.832584        -0.451279         1.186092
 C         4.053291        -0.749077        -0.074789
 O         3.391258        -0.995126        -1.353131
 C         1.969885        -0.947767        -1.158590
 H        -0.671836        -0.242123         0.467255
 H        -0.357551         1.292248        -0.121251
 H        -0.211573        -0.043703        -1.362534
 H         2.754612         1.563120        -1.159740
 H         2.211108         2.057668         0.455569
 H         4.556532         1.451444         0.863068
 H         3.598667        -0.860446         2.288218
 H         4.917436        -1.351629        -0.019291
 H         1.576215        -0.638480        -2.095950
 H         1.577550        -1.803975        -0.729543
