19
Iteration:  1613
 C         0.133236         0.340077        -0.196451
 C         1.619714         0.084154        -0.180127
 C         2.432527         1.244752        -0.589741
 C         3.747655         0.798491        -0.103836
 C         3.393368         0.007779         1.223331
 O         1.958411        -0.247191         1.251082
 C         4.034812        -0.707113         0.015255
 O         3.224923        -1.695812        -0.630273
 C         1.986326        -1.090584        -1.074223
 H        -0.391004        -0.215407         0.627306
 H        -0.107599         1.371608         0.076298
 H        -0.342719         0.065971        -1.122951
 H         2.328454         1.565086        -1.696277
 H         2.215330         2.203415        -0.140970
 H         4.458544         1.597727        -0.256946
 H         3.798966         0.103323         2.227765
 H         5.094528        -0.967032         0.220214
 H         2.097991        -0.645064        -2.204429
 H         1.159312        -1.790252        -0.921566
