19
Iteration:  1441
 C         0.080152         0.323120        -0.085244
 C         1.569926         0.088392        -0.215293
 C         2.460796         1.371204        -0.577369
 C         3.712002         0.807436        -0.054671
 C         3.326420        -0.043956         1.185915
 O         1.965877        -0.310954         1.180791
 C         4.016792        -0.746841         0.027037
 O         3.258455        -1.668070        -0.639377
 C         2.116828        -1.038255        -1.112064
 H        -0.313267         1.402261        -0.069816
 H        -0.408456        -0.089740        -0.943925
 H        -0.402037        -0.052960         0.791982
 H         2.462071         1.628762        -1.587098
 H         2.144222         2.140333         0.176032
 H         4.732625         1.249193        -0.112121
 H         3.866892         0.021874         2.176389
 H         5.033059        -1.148862         0.124028
 H         2.130983        -0.582226        -2.135016
 H         1.186185        -1.703016        -1.234760
