19
Iteration:   314
 C         0.082732         0.321708        -0.188973
 C         1.573880         0.090920        -0.155414
 C         2.553410         1.319068         0.153846
 C         3.808017         0.593309         0.684708
 C         3.264694        -0.806502         1.223463
 O         1.856849        -0.743266         0.936039
 C         4.068289        -0.691985        -0.027430
 O         3.397283        -0.857234        -1.298240
 C         1.933576        -0.556194        -1.435316
 H        -0.337284         1.119187         0.573550
 H        -0.278495         0.711614        -1.221131
 H        -0.427519        -0.555011         0.047973
 H         2.698538         1.982748        -0.813923
 H         2.005681         1.889020         0.928920
 H         4.637532         1.167071         1.117353
 H         3.378366        -1.350116         2.132364
 H         5.142742        -1.055607        -0.190022
 H         1.890119         0.144071        -2.280324
 H         1.229509        -1.347694        -1.713347
