19
Iteration:  3732charge 0 multiplicity 1
 C         0.020623         0.244410        -0.246622
 C         1.530491        -0.079184        -0.162921
 C         2.342992         0.182363        -1.530514
 C         3.746902         0.270713        -1.001051
 C         3.579745         0.725400         0.660762
 O         2.176730         1.056737         0.725521
 C         3.970609        -0.636799         0.185945
 O         3.205116        -1.821147         0.265449
 C         1.907473        -1.292923         0.643572
 H        -0.312722         0.913636         0.638666
 H        -0.332535         0.643462        -1.195349
 H        -0.525373        -0.730563        -0.099132
 H         2.203457        -0.675416        -2.355066
 H         2.042832         1.228050        -1.888372
 H         4.624160         0.641892        -1.524286
 H         4.181439         1.384543         1.184461
 H         5.051837        -0.985590         0.232359
 H         1.155132        -1.933199         0.742369
 H         2.037298        -0.848793         1.691808
