19
Iteration:  2529
 C         0.000649         0.341711        -0.275573
 C         1.528482        -0.046865        -0.149970
 C         2.493718         0.825760        -1.120343
 C         3.864103         0.754844        -0.394070
 C         3.423555         0.275512         1.049437
 O         2.012776         0.463002         1.133986
 C         4.033541        -0.682258         0.068714
 O         3.285446        -1.708697        -0.557178
 C         1.889101        -1.491584        -0.106336
 H        -0.244751         0.757340         0.662708
 H        -0.157750         1.101874        -1.006515
 H        -0.807930        -0.449228        -0.426694
 H         2.497431         0.493474        -2.103222
 H         2.202352         1.971044        -1.182243
 H         4.656525         1.489853        -0.610932
 H         3.708920         0.341823         2.125596
 H         4.991605        -1.205218         0.335382
 H         1.179219        -2.072305        -0.885358
 H         1.826796        -1.861443         0.864487
