19
Iteration:  3749charge 0 multiplicity 1
 C         0.009066         0.164072        -0.242211
 C         1.534141         0.039321        -0.085932
 C         2.377800         0.189901        -1.385458
 C         3.833460         0.297994        -0.956292
 C         3.563907         0.772496         0.442468
 O         2.193152         1.029609         0.705937
 C         4.058411        -0.670437         0.137929
 O         3.131593        -1.803997         0.267133
 C         1.824664        -1.323567         0.684552
 H        -0.433459         0.619699         0.605356
 H        -0.150395         0.926423        -1.050893
 H        -0.507800        -0.761115        -0.436720
 H         2.180636        -0.585189        -2.027854
 H         1.996015         1.104596        -1.820767
 H         4.566967         0.630381        -1.704908
 H         4.211911         1.473362         1.016052
 H         5.031017        -0.855212         0.547145
 H         1.158814        -2.237877         0.285566
 H         1.755447        -1.183607         1.751824
