19
Iteration:  2321charge 0 multiplicity 1
 C         0.104749         0.445454        -0.290864
 C         1.556691        -0.022663        -0.111743
 C         2.520770         0.745748        -1.004682
 C         3.763499         0.783297        -0.230857
 C         3.422869         0.288757         1.118178
 O         1.937695         0.230601         1.266226
 C         4.084931        -0.687620         0.022159
 O         3.276560        -1.562317        -0.722896
 C         1.859736        -1.493762        -0.365058
 H        -0.334827         0.721759         0.673735
 H         0.139153         1.328268        -0.893137
 H        -0.550125        -0.294479        -0.810362
 H         2.466955         0.381804        -1.949388
 H         2.018205         1.762259        -1.085846
 H         4.550179         1.550821        -0.330279
 H         3.887308         0.530289         2.093349
 H         5.032551        -1.137523         0.299593
 H         1.322610        -1.951306        -1.144547
 H         1.698805        -1.937461         0.673666
