19
Iteration:  4559
 C         0.017410         0.262476        -0.228565
 C         1.480188        -0.100540        -0.214586
 C         2.298429        -0.182044        -1.443656
 C         3.703328         0.194467        -1.100291
 C         3.627668         0.813541         0.262939
 O         2.265577         1.032723         0.540295
 C         4.035168        -0.587035         0.197472
 O         3.206414        -1.621758         0.662013
 C         1.839542        -1.182160         0.819533
 H        -0.155691         1.421387        -0.057366
 H        -0.461564         0.068479        -1.174820
 H        -0.451398        -0.254699         0.608927
 H         2.287868        -1.157434        -1.929625
 H         1.923169         0.625953        -2.215042
 H         4.549865         0.442380        -1.786697
 H         4.250090         1.551220         0.697960
 H         5.090659        -0.879625         0.306796
 H         1.200743        -2.064688         0.874065
 H         1.617951        -0.571831         1.803002
