19
Iteration:  1799
 C         0.112213         0.281292        -0.129443
 C         1.605801         0.095318        -0.148856
 C         2.536217         1.307486        -0.763303
 C         3.756004         0.785844        -0.065799
 C         3.424835         0.039236         1.250644
 O         2.016899        -0.157667         1.176964
 C         3.948720        -0.710700         0.086321
 O         3.235359        -1.651315        -0.640761
 C         1.865020        -1.181147        -1.000996
 H        -0.274498         1.393282        -0.107638
 H        -0.225371        -0.260419        -1.014055
 H        -0.189478        -0.323011         0.737570
 H         2.455718         1.199679        -1.938354
 H         2.241753         2.329480        -0.655289
 H         4.692434         1.348603        -0.106385
 H         3.785929         0.286051         2.314563
 H         4.997705        -1.027984         0.116824
 H         1.811966        -1.023629        -2.026576
 H         1.099238        -2.042378        -0.770277
