19
Iteration:  1040
 C         0.069387         0.222835        -0.263524
 C         1.581234         0.195936        -0.131694
 C         2.476207         1.425825        -0.147432
 C         3.752314         0.759322         0.135317
 C         3.387644        -0.247238         1.199179
 O         2.013448        -0.450697         1.155239
 C         3.990707        -0.758172        -0.013043
 O         3.182757        -1.572045        -0.876996
 C         2.024862        -0.771985        -1.289499
 H        -0.291827        -0.460849         0.480196
 H        -0.224088         1.161071        -0.056903
 H        -0.241312        -0.136626        -1.237307
 H         2.457378         1.697470        -1.185718
 H         2.075767         2.052870         0.680462
 H         4.574192         1.441111         0.238462
 H         3.847465        -0.410508         2.232570
 H         5.086593        -1.048154         0.153400
 H         2.346497        -0.037613        -2.085931
 H         1.254757        -1.478790        -1.681118
