19
Iteration:  4929charge 0 multiplicity 1
 C         0.025108         0.342454        -0.294110
 C         1.543038         0.017619         0.009222
 C         2.193119        -0.231435        -1.386268
 C         3.739512         0.157429        -1.101342
 C         3.578041         0.876586         0.236263
 O         2.228779         1.133420         0.547435
 C         4.045476        -0.637505         0.190998
 O         3.275671        -1.672918         0.581624
 C         1.856461        -1.321351         0.791890
 H         0.036234         1.514369        -0.611494
 H        -0.245887        -0.198830        -1.140773
 H        -0.708038         0.197737         0.555705
 H         2.298513        -1.286683        -1.709118
 H         1.755495         0.427283        -2.212838
 H         4.437158         0.283694        -1.885268
 H         4.210996         1.677108         0.635736
 H         5.060327        -0.778405         0.556926
 H         1.128662        -2.082124         0.379518
 H         1.612956        -1.181702         1.888759
