19
Iteration:  3218
 C         0.027482         0.348897        -0.177170
 C         1.556386        -0.031878        -0.164293
 C         2.323235         0.588656        -1.321885
 C         3.773643         0.383560        -0.878613
 C         3.530207         0.689757         0.668855
 O         2.138840         0.685242         0.936882
 C         4.024862        -0.607753         0.148577
 O         3.249841        -1.806607         0.399943
 C         1.880157        -1.561701        -0.056408
 H        -0.140792         0.908165         0.761101
 H        -0.287618         1.156688        -0.959477
 H        -0.594439        -0.526498        -0.361173
 H         1.883570        -0.094816        -2.253588
 H         2.267371         1.638605        -1.489696
 H         4.620309         0.869225        -1.442815
 H         4.139051         1.373490         1.341850
 H         5.067805        -0.733944         0.392654
 H         1.691815        -2.080245        -0.967520
 H         1.165746        -1.920090         0.849835
