19
Iteration:  4681
 C         0.042567         0.317248        -0.231095
 C         1.507976        -0.004544        -0.098797
 C         2.184875        -0.164673        -1.410379
 C         3.742951         0.059406        -1.136049
 C         3.594096         0.878875         0.158546
 O         2.202971         1.183603         0.493908
 C         4.065524        -0.607762         0.184047
 O         3.291446        -1.627436         0.900532
 C         1.889983        -1.378699         0.710659
 H        -0.645154         0.099338         0.623927
 H        -0.026865         1.357355        -0.160549
 H        -0.329790        -0.081387        -1.245591
 H         1.816933        -1.136708        -1.822773
 H         1.696867         0.570530        -2.162959
 H         4.289700         0.123728        -2.043755
 H         4.358826         1.701012         0.371174
 H         5.112401        -0.800555         0.334757
 H         1.579067        -2.024109        -0.087000
 H         1.331061        -1.516668         1.651422
