19
Iteration:  4242charge 0 multiplicity 1
 C         0.089429         0.312544        -0.066696
 C         1.567011         0.053531        -0.250154
 C         2.224822         0.202576        -1.567514
 C         3.654484        -0.018065        -1.085369
 C         3.578405         0.868772         0.329423
 O         2.191889         0.953881         0.641660
 C         4.013914        -0.601949         0.236959
 O         3.251797        -1.668325         0.881278
 C         1.904723        -1.424576         0.378779
 H        -0.232347         1.061659         0.824209
 H        -0.338565         0.648948        -1.052619
 H        -0.373141        -0.612270         0.269459
 H         1.770555        -0.601686        -2.118075
 H         2.209582         1.149392        -2.204576
 H         4.505870         0.349581        -1.724380
 H         4.205805         1.674520         0.585534
 H         5.137214        -0.763083         0.353383
 H         1.758811        -2.337138        -0.296123
 H         1.287141        -1.473048         1.183275
