19
Iteration:  2828charge 0 multiplicity 1
 C         0.031459         0.318595        -0.171525
 C         1.525232         0.034483        -0.155529
 C         2.409032         0.699607        -1.202179
 C         3.806480         0.640603        -0.624831
 C         3.582557         0.571483         0.779493
 O         2.148444         0.435669         1.104273
 C         4.092555        -0.646745         0.121982
 O         3.143816        -1.738517         0.107953
 C         1.815167        -1.565182        -0.351501
 H        -0.434161        -0.686544        -0.313123
 H        -0.326025         0.932855         0.737057
 H        -0.329236         0.880687        -0.968545
 H         2.240989         0.320145        -2.100490
 H         2.008675         1.775722        -1.268424
 H         4.558463         1.364635        -1.007377
 H         3.852622         1.248784         1.557120
 H         5.075002        -1.168594         0.394212
 H         1.682004        -1.763420        -1.457118
 H         1.269182        -2.332212         0.168332
