19
Iteration:  2997
 C        -0.021140         0.262389        -0.198120
 C         1.508744         0.071112        -0.145877
 C         2.371733         0.627473        -1.356052
 C         3.742436         0.581040        -0.677310
 C         3.604190         0.559581         0.822267
 O         2.194364         0.565780         1.055070
 C         4.101574        -0.677843         0.134206
 O         3.192903        -1.744030         0.193872
 C         1.818467        -1.421057        -0.193952
 H        -0.443504         0.264841         0.806061
 H        -0.437364         1.141285        -0.688959
 H        -0.459494        -0.747140        -0.616958
 H         2.382987        -0.152166        -2.219363
 H         1.961065         1.543982        -1.643619
 H         4.590950         1.102812        -1.221553
 H         4.123654         1.231852         1.501075
 H         5.131185        -1.122983         0.141764
 H         1.659482        -1.926876        -1.273294
 H         1.206751        -2.143738         0.501767
