19
Iteration:  2916charge 0 multiplicity 1
 C         0.104580         0.297389        -0.217439
 C         1.552293         0.043280        -0.109046
 C         2.463447         0.497391        -1.300133
 C         3.821210         0.648864        -0.608496
 C         3.423298         0.543967         0.895216
 O         2.061883         0.634682         1.083576
 C         4.050522        -0.683905         0.158156
 O         3.207110        -1.746168        -0.302040
 C         1.828464        -1.477189         0.016570
 H        -0.077290         1.199037        -0.865656
 H        -0.536268        -0.594156        -0.464216
 H        -0.266234         0.572463         0.724247
 H         2.400479        -0.260002        -1.989811
 H         2.027056         1.397428        -1.892500
 H         4.540248         1.420392        -0.745342
 H         4.091598         1.023493         1.578082
 H         5.032178        -1.006475         0.496259
 H         1.313373        -2.130775        -0.666325
 H         1.664143        -1.905691         1.173237
