19
Iteration:  1157charge 0 multiplicity 1
 C         0.087312         0.389265        -0.341800
 C         1.585984         0.010508        -0.107009
 C         2.551776         1.197876        -0.420071
 C         3.832554         0.718219         0.297373
 C         3.257299        -0.286322         1.289917
 O         1.860415        -0.270638         1.329278
 C         4.025901        -0.700730        -0.097572
 O         3.295603        -1.119007        -1.263639
 C         1.985593        -1.204633        -0.895365
 H         0.235605         1.438613        -0.783350
 H        -0.287384        -0.253599        -1.132182
 H        -0.557460         0.578914         0.542189
 H         2.596776         1.237543        -1.483150
 H         2.273167         1.948286         0.156963
 H         4.615406         1.419779         0.544800
 H         3.830652        -0.645746         2.207893
 H         5.025444        -1.288330        -0.153180
 H         1.356384        -1.393000        -1.699805
 H         1.909649        -1.942729        -0.101512
