19
Iteration:  3927
 C         0.026288         0.464040        -0.167717
 C         1.488865        -0.019193        -0.072647
 C         2.342067        -0.215789        -1.495692
 C         3.716485         0.283767        -0.993570
 C         3.579354         0.849049         0.406425
 O         2.143187         1.071201         0.684924
 C         4.104065        -0.582881         0.199954
 O         3.261895        -1.724093         0.390324
 C         1.813582        -1.428020         0.632412
 H         0.003810         1.298061        -0.952695
 H        -0.588075        -0.356079        -0.555338
 H        -0.433911         0.652021         0.805156
 H         2.314878        -1.145927        -1.925722
 H         2.081977         0.567819        -2.211926
 H         4.469514         0.477137        -1.735940
 H         4.308073         1.582161         0.934652
 H         5.121340        -0.884611         0.362059
 H         1.236522        -2.223928         0.176521
 H         1.577738        -1.348007         1.669620
