19
Iteration:   792charge 0 multiplicity 1
 C        -0.006214         0.300325        -0.301597
 C         1.628622         0.142517        -0.073264
 C         2.625827         1.292788        -0.146274
 C         3.804894         0.695016         0.476928
 C         3.269663        -0.541555         1.220065
 O         1.846734        -0.472644         1.204690
 C         4.013255        -0.743845        -0.073485
 O         3.392107        -1.038279        -1.331168
 C         1.971360        -0.897458        -1.164196
 H        -0.548192        -0.366899         0.355249
 H        -0.382979         1.334012         0.035186
 H        -0.182098         0.014922        -1.291594
 H         2.684282         1.567922        -1.215760
 H         2.134535         2.133883         0.432895
 H         4.501918         1.372853         0.969948
 H         3.664666        -0.771789         2.149048
 H         4.937026        -1.345340         0.021997
 H         1.580503        -0.529512        -2.174572
 H         1.520472        -1.858105        -0.668811
