19
Iteration:   770
 C         0.011893         0.438400        -0.251546
 C         1.533455        -0.010147        -0.184869
 C         2.571361         1.256513        -0.172274
 C         3.863146         0.584050         0.495343
 C         3.222326        -0.516729         1.239367
 O         1.817921        -0.463189         1.212345
 C         4.041023        -0.699692        -0.091066
 O         3.415216        -0.843628        -1.310707
 C         1.990694        -1.058434        -1.146024
 H        -0.316564         0.367939         0.786158
 H         0.007869         1.569981        -0.467481
 H        -0.519120        -0.249732        -0.836797
 H         2.741891         1.591041        -1.216165
 H         2.061785         2.088793         0.437963
 H         4.732877         1.123353         0.902580
 H         3.621406        -1.033023         2.039677
 H         5.075949        -1.059095        -0.059719
 H         1.571901        -0.931425        -2.215146
 H         1.898614        -2.131083        -0.616951
