19
Iteration:  3973charge 0 multiplicity 1
 C        -0.052778         0.239615        -0.257973
 C         1.505370        -0.062562        -0.132495
 C         2.306147         0.072861        -1.496707
 C         3.758858         0.169491        -1.105920
 C         3.635539         0.804773         0.401754
 O         2.248668         1.048353         0.670520
 C         4.067464        -0.630936         0.153049
 O         3.196797        -1.718718         0.586304
 C         1.864506        -1.270519         0.703693
 H        -0.192389         1.300884         0.108718
 H        -0.532644         0.211565        -1.196220
 H        -0.617679        -0.567348         0.366078
 H         2.209346        -0.754986        -2.181190
 H         1.862026         0.944988        -1.908136
 H         4.505154         0.703259        -1.744366
 H         4.174587         1.633951         0.856671
 H         5.050469        -1.059986         0.228360
 H         1.221831        -2.197948         0.378063
 H         1.598570        -0.981760         1.680895
