19
Iteration:   699charge 0 multiplicity 1
 C         0.039142         0.267924        -0.150967
 C         1.588564         0.155139        -0.154248
 C         2.471064         1.349923        -0.049145
 C         3.831847         0.724240         0.436373
 C         3.279865        -0.448725         1.265050
 O         1.885450        -0.610148         1.003600
 C         3.993841        -0.735903        -0.022266
 O         3.363501        -1.299034        -1.167899
 C         2.022038        -0.646004        -1.344158
 H        -0.123657         1.320125        -0.402598
 H        -0.374392        -0.268498        -0.916127
 H        -0.257528         0.032168         0.904529
 H         2.562921         1.894962        -0.975853
 H         2.136241         2.013373         0.688597
 H         4.662329         1.274041         0.836947
 H         3.539831        -0.706851         2.306859
 H         5.041174        -1.140598        -0.088623
 H         2.174131        -0.070011        -2.227860
 H         1.354322        -1.465580        -1.417902
