19
Iteration:  2824
 C         0.039512         0.297860        -0.157716
 C         1.537353         0.023004        -0.131961
 C         2.394440         0.673637        -1.212225
 C         3.817634         0.610339        -0.627594
 C         3.556419         0.576918         0.814949
 O         2.149725         0.435558         1.113864
 C         4.095594        -0.658455         0.101481
 O         3.157659        -1.736301         0.095302
 C         1.826413        -1.481215        -0.365950
 H        -0.550181        -0.592467        -0.182204
 H        -0.306014         0.942396         0.615191
 H        -0.419197         0.805199        -1.094164
 H         2.269661         0.177553        -2.261858
 H         2.039130         1.741194        -1.366093
 H         4.558822         1.359155        -0.966328
 H         3.824367         1.311929         1.620600
 H         5.001246        -1.127139         0.370568
 H         1.698804        -1.584864        -1.411824
 H         1.182593        -2.366117         0.167560
