19
Iteration:   166charge 0 multiplicity 1
 C         0.148570         0.512763        -0.268884
 C         1.562135         0.077577        -0.068168
 C         2.526859         1.259800         0.267245
 C         3.697368         0.441963         0.760346
 C         3.195610        -0.957839         1.063882
 O         1.772744        -0.908365         1.007084
 C         4.050866        -0.647461        -0.148676
 O         3.484000        -0.453955        -1.434522
 C         2.051551        -0.675995        -1.306914
 H        -0.158511         1.029414         0.581230
 H        -0.017195         1.175379        -1.156687
 H        -0.503964        -0.447627        -0.353016
 H         2.769152         1.854012        -0.545123
 H         2.090496         1.904413         1.014381
 H         4.410183         1.063705         1.326899
 H         3.463198        -1.698842         1.783874
 H         5.102399        -1.108331        -0.166279
 H         1.643063        -0.067334        -2.125975
 H         1.714238        -1.687776        -1.266041
