19
Iteration:  2480
 C         0.004848         0.319006        -0.222789
 C         1.501323         0.069646        -0.168511
 C         2.454087         0.784469        -1.073751
 C         3.846086         0.759276        -0.412351
 C         3.542016         0.300600         1.029416
 O         2.055825         0.364751         1.244475
 C         4.070733        -0.629331         0.084637
 O         3.242707        -1.724720        -0.335975
 C         1.804518        -1.437876        -0.466233
 H        -0.397566         1.390470        -0.452192
 H        -0.387296        -0.388266        -1.054249
 H        -0.453701         0.028532         0.703338
 H         2.464337         0.416094        -2.188222
 H         2.099415         1.743121        -1.159267
 H         4.689355         1.364753        -0.720625
 H         3.955663         0.553604         1.985774
 H         5.028938        -1.092521         0.312366
 H         1.682238        -1.601999        -1.463812
 H         1.279770        -2.280872         0.137009
