19
Iteration:   969
 C         0.146019         0.548166        -0.138326
 C         1.534918        -0.000043        -0.199343
 C         2.522317         1.184113        -0.416498
 C         3.778599         0.760080         0.403030
 C         3.222133        -0.386059         1.232900
 O         1.882857        -0.544130         1.204749
 C         4.043457        -0.686808        -0.003764
 O         3.418624        -0.991787        -1.230422
 C         1.911316        -1.171097        -1.079651
 H         0.145978         1.445504         0.518706
 H        -0.033890         0.952318        -1.240348
 H        -0.531404        -0.214843         0.237985
 H         2.719840         1.091634        -1.542294
 H         2.229391         2.123111         0.056655
 H         4.429378         1.456480         0.948343
 H         3.629736        -0.642114         2.239959
 H         5.002373        -1.088438         0.049979
 H         1.416757        -1.058237        -2.078971
 H         1.678956        -2.123447        -0.510312
