19
Iteration:  3907charge 0 multiplicity 1
 C         0.034467         0.405884        -0.159279
 C         1.527700        -0.065085        -0.186844
 C         2.288430         0.044836        -1.468636
 C         3.752179         0.251287        -1.032080
 C         3.531110         0.776342         0.404207
 O         2.181495         0.908642         0.604863
 C         4.060482        -0.604585         0.257369
 O         3.239742        -1.711121         0.535872
 C         1.879501        -1.356611         0.583212
 H        -0.168462         0.973959        -1.113989
 H        -0.694928        -0.292224         0.099208
 H         0.006668         1.059530         0.754658
 H         2.222276        -0.923739        -1.975770
 H         1.818603         0.745733        -2.152735
 H         4.423228         0.692918        -1.755041
 H         4.212101         1.599970         0.823135
 H         5.083237        -0.766172         0.396025
 H         1.144587        -2.201749         0.164039
 H         1.750451        -1.099811         1.612602
