19
Iteration:  4374charge 0 multiplicity 1
 C         0.039119         0.229518        -0.097860
 C         1.546803        -0.016366        -0.159680
 C         2.382743        -0.110596        -1.578172
 C         3.716940         0.166068        -1.021867
 C         3.587462         0.883151         0.312640
 O         2.237354         0.972245         0.631977
 C         4.053690        -0.596897         0.225920
 O         3.133196        -1.618039         0.569758
 C         1.842923        -1.204853         0.596422
 H        -0.470704        -0.704881         0.510932
 H        -0.187096         1.088046         0.516907
 H        -0.512935         0.442783        -1.121841
 H         2.177140        -1.101922        -1.925930
 H         2.077000         0.670595        -2.339409
 H         4.482348         0.508859        -1.630883
 H         4.135498         1.775162         0.786207
 H         4.987891        -0.974314         0.560267
 H         1.153291        -2.095829         0.259471
 H         1.618168        -1.091224         1.704582
