19
Iteration:  1091
 C         0.069408         0.383761        -0.060863
 C         1.571006         0.106863        -0.188431
 C         2.451161         1.393672        -0.373538
 C         3.820534         0.810133         0.216858
 C         3.306137        -0.247396         1.241772
 O         1.916406        -0.480266         1.097662
 C         4.017029        -0.715949         0.031684
 O         3.323114        -1.477147        -0.952354
 C         2.039114        -0.984604        -1.254659
 H        -0.532325        -0.240238        -0.828026
 H        -0.254242         0.258175         1.020764
 H        -0.029283         1.455719        -0.361896
 H         2.500265         1.708345        -1.453926
 H         1.963786         2.125335         0.266962
 H         4.675025         1.458419         0.486518
 H         3.575186        -0.435403         2.285685
 H         5.078840        -1.111046         0.123685
 H         2.018529        -0.688150        -2.289040
 H         1.297014        -1.834380        -1.074325
