19
Iteration:   139charge 0 multiplicity 1
 C         0.018689         0.469928        -0.231885
 C         1.532363         0.091945        -0.085857
 C         2.555040         1.283402         0.379295
 C         3.763890         0.471692         0.929527
 C         3.245780        -0.904274         1.084463
 O         1.783419        -0.933912         0.879166
 C         4.082191        -0.595530        -0.145950
 O         3.496259        -0.594804        -1.475867
 C         2.036426        -0.610475        -1.416792
 H         0.092572         1.660799        -0.134750
 H        -0.468840         0.170453        -1.183352
 H        -0.575640         0.173034         0.601944
 H         2.890996         1.796977        -0.629321
 H         2.016625         2.023991         1.029995
 H         4.553863         0.953681         1.472955
 H         3.427393        -1.710784         1.805928
 H         5.038781        -0.996656        -0.188454
 H         1.635288        -0.087975        -2.300556
 H         1.521065        -1.659383        -1.244073
