19
Iteration:  1421charge 0 multiplicity 1
 C         0.056371         0.299523        -0.245641
 C         1.512025         0.121060        -0.196415
 C         2.407855         1.351831        -0.370031
 C         3.826636         0.858555        -0.017065
 C         3.440816        -0.110271         1.184254
 O         1.974844        -0.190490         1.122620
 C         4.070541        -0.704530        -0.021016
 O         3.259479        -1.714787        -0.665132
 C         1.963980        -1.142457        -1.074142
 H        -0.333880         1.279815        -0.440360
 H        -0.441158        -0.324668        -0.898589
 H        -0.291819         0.237975         0.764446
 H         2.432716         1.634102        -1.371164
 H         2.272642         2.221164         0.329398
 H         4.641685         1.566923         0.173963
 H         3.813449        -0.014903         2.241349
 H         5.136523        -1.080399        -0.125155
 H         1.977077        -0.955887        -2.201193
 H         1.122349        -1.827789        -1.046726
