19
Iteration:  2676charge 0 multiplicity 1
 C         0.012460         0.357096        -0.168630
 C         1.497534         0.059618        -0.161653
 C         2.442238         0.831832        -1.225048
 C         3.841773         0.669329        -0.580564
 C         3.429603         0.366619         0.967954
 O         2.057241         0.406797         1.101932
 C         4.081687        -0.661150         0.107685
 O         3.333968        -1.819653        -0.124020
 C         1.828193        -1.449873        -0.291971
 H        -0.407572         0.885817        -1.050475
 H        -0.618458        -0.558376        -0.091595
 H        -0.203939         0.794385         0.739882
 H         2.317237         0.372304        -2.271330
 H         2.036008         1.797772        -1.108612
 H         4.705518         1.322480        -0.859500
 H         3.837142         1.023263         1.767642
 H         5.130952        -0.892662         0.174033
 H         1.505079        -1.870487        -1.350675
 H         1.262001        -1.993625         0.510413
