19
Iteration:  2145charge 0 multiplicity 1
 C         0.044014         0.321837        -0.268809
 C         1.572602         0.073831        -0.136233
 C         2.569307         0.945539        -0.986084
 C         3.808036         0.757238        -0.084925
 C         3.371541         0.149721         1.167194
 O         1.947297         0.185866         1.314790
 C         4.019367        -0.739636         0.015817
 O         3.266022        -1.526121        -0.826376
 C         1.928712        -1.387038        -0.500080
 H        -0.440329        -0.690793        -0.041301
 H        -0.230917         0.995425         0.553116
 H        -0.314609         0.714756        -1.181804
 H         2.702231         0.435291        -1.853941
 H         2.310856         2.024593        -1.096877
 H         4.472514         1.587626        -0.237872
 H         3.910675         0.231341         2.066940
 H         5.019773        -1.188007         0.172613
 H         1.294120        -1.791322        -1.267567
 H         1.517370        -1.971064         0.454075
