19
Iteration:   796
 C         0.011657         0.305134        -0.293741
 C         1.624866         0.124674        -0.083573
 C         2.611414         1.340362        -0.149340
 C         3.802430         0.685287         0.466748
 C         3.249698        -0.519843         1.192307
 O         1.863723        -0.496819         1.222620
 C         3.982206        -0.739647        -0.074426
 O         3.392585        -1.080422        -1.300341
 C         1.971532        -0.851905        -1.164972
 H        -0.393315        -0.561367         0.272986
 H        -0.343711         1.266025         0.062530
 H        -0.243182         0.113083        -1.379099
 H         2.674138         1.614939        -1.255231
 H         2.178655         2.181252         0.370208
 H         4.522577         1.248936         1.037960
 H         3.797675        -0.788565         2.161335
 H         4.967960        -1.253318         0.047471
 H         1.604558        -0.545205        -2.131862
 H         1.506264        -1.818341        -0.808335
