19
Iteration:  2185charge 0 multiplicity 1
 C         0.037992         0.334544        -0.200556
 C         1.520893         0.036591        -0.218209
 C         2.465073         1.046111        -0.824351
 C         3.789122         0.805740        -0.242832
 C         3.463910         0.245992         1.085104
 O         2.014906         0.172319         1.192661
 C         4.082030        -0.714905         0.036046
 O         3.245286        -1.752494        -0.459207
 C         1.896217        -1.414577        -0.714344
 H        -0.603041        -0.172324        -0.965780
 H        -0.306772         0.059096         0.829964
 H        -0.075461         1.419396        -0.450815
 H         2.413984         1.183792        -2.016580
 H         2.166640         1.957579        -0.288201
 H         4.622008         1.508365        -0.219797
 H         3.919196         0.548143         1.995002
 H         5.017107        -1.124839         0.203498
 H         1.654173        -1.615371        -1.794043
 H         1.385017        -2.205407        -0.207194
