19
Iteration:  2964
 C         0.096875         0.305025        -0.247767
 C         1.562035        -0.031876        -0.113779
 C         2.392631         0.602618        -1.251854
 C         3.759434         0.638115        -0.706152
 C         3.487868         0.587189         0.769320
 O         2.113813         0.635930         1.065335
 C         4.061695        -0.703647         0.171104
 O         3.222820        -1.793939        -0.098565
 C         1.809351        -1.511201         0.030007
 H        -0.097579         1.150671         0.427092
 H        -0.133595         0.546788        -1.267284
 H        -0.654272        -0.586459        -0.097128
 H         2.330365         0.288965        -2.359110
 H         1.999132         1.540461        -1.297394
 H         4.608261         1.256027        -1.095709
 H         4.117936         1.070223         1.550615
 H         5.059628        -0.980476         0.561524
 H         1.238856        -2.100592        -0.838585
 H         1.527764        -1.927143         1.015604
