19
Iteration:  3909
 C         0.023099         0.415069        -0.164886
 C         1.518145        -0.062524        -0.185835
 C         2.289627         0.044603        -1.460897
 C         3.747312         0.243172        -1.014658
 C         3.532668         0.784948         0.422628
 O         2.196501         0.913868         0.594264
 C         4.051243        -0.609709         0.242135
 O         3.247410        -1.707092         0.517393
 C         1.881387        -1.363144         0.594384
 H        -0.146060         1.019265        -1.045311
 H        -0.738239        -0.306627         0.031177
 H        -0.008887         1.084936         0.765150
 H         2.246244        -1.031551        -1.949464
 H         1.803701         0.671008        -2.206656
 H         4.461145         0.698898        -1.723086
 H         4.148562         1.598253         0.789152
 H         5.101474        -0.721549         0.401555
 H         1.185769        -2.242715         0.142843
 H         1.746222        -1.132535         1.692223
