19
Iteration:  1546charge 0 multiplicity 1
 C         0.091008         0.355730        -0.299758
 C         1.520933         0.028218        -0.097941
 C         2.602041         1.076425        -0.658477
 C         3.793052         0.781763         0.147369
 C         3.348512        -0.119359         1.249861
 O         1.925492        -0.077665         1.303100
 C         4.026690        -0.737019         0.032777
 O         3.273677        -1.240157        -1.123141
 C         1.916217        -1.352724        -0.703372
 H        -0.580045         0.547677         0.460675
 H         0.062851         1.381367        -0.770538
 H        -0.327313        -0.268013        -1.081053
 H         2.704512         0.855280        -1.790296
 H         2.243659         2.064826        -0.708430
 H         4.525277         1.657649         0.169807
 H         3.881972        -0.288867         2.232717
 H         4.855452        -1.363159         0.062898
 H         1.432520        -1.462648        -1.694740
 H         1.847668        -2.078284         0.058512
