19
Iteration:  2985charge 0 multiplicity 1
 C         0.020767         0.250988        -0.238765
 C         1.571888         0.074906        -0.118089
 C         2.375305         0.594251        -1.273337
 C         3.781846         0.587343        -0.748069
 C         3.580488         0.624205         0.861968
 O         2.174036         0.575411         1.136000
 C         4.024844        -0.635262         0.100183
 O         3.166957        -1.772907         0.067337
 C         1.818520        -1.495937        -0.131016
 H        -0.394345         0.648295         0.707828
 H        -0.261228         0.813561        -1.094644
 H        -0.390469        -0.819251        -0.503802
 H         2.212622        -0.219648        -2.093215
 H         2.162729         1.496138        -1.774727
 H         4.747920         0.988126        -1.190541
 H         4.127932         1.322751         1.551073
 H         5.087822        -0.918511         0.119568
 H         1.442221        -1.772569        -1.246709
 H         1.147191        -2.015298         0.729112
