19
Iteration:  2500charge 0 multiplicity 1
 C         0.082926         0.283901        -0.230125
 C         1.571463        -0.003917        -0.123434
 C         2.489734         0.891484        -1.061045
 C         3.805633         0.695418        -0.404014
 C         3.428183         0.404957         1.023018
 O         2.032565         0.397192         1.169413
 C         3.986115        -0.726965         0.139585
 O         3.266210        -1.740962        -0.513871
 C         1.848413        -1.474930        -0.314028
 H        -0.128156         1.304513         0.158977
 H        -0.280268         0.287330        -1.301844
 H        -0.558787        -0.335796         0.336358
 H         2.472201         0.449816        -2.108264
 H         2.314430         1.936231        -1.215446
 H         4.607870         1.405236        -0.587644
 H         3.838752         0.948433         1.890653
 H         5.020404        -1.191171         0.255690
 H         1.245943        -1.851340        -1.108613
 H         1.557698        -1.935449         0.702879
