19
Iteration:  2521
 C         0.085952         0.355786        -0.257436
 C         1.574613        -0.013383        -0.187201
 C         2.466325         0.846621        -1.143656
 C         3.842500         0.709965        -0.362435
 C         3.374614         0.324952         1.070310
 O         1.992176         0.449620         1.149495
 C         4.032443        -0.697453         0.078821
 O         3.255422        -1.696339        -0.568938
 C         1.899990        -1.541841        -0.139699
 H        -0.213036         0.895468         0.636582
 H        -0.311096         0.937632        -1.129868
 H        -0.491516        -0.541955        -0.216991
 H         2.406298         0.607470        -2.236062
 H         2.107432         1.923917        -1.034073
 H         4.674953         1.310711        -0.717084
 H         3.948397         0.322810         2.015864
 H         5.102755        -1.038060         0.407505
 H         1.204826        -2.148407        -0.781857
 H         1.711134        -1.775832         0.926432
