19
Iteration:  2756
 C         0.024461         0.300641        -0.304047
 C         1.534002         0.007123        -0.161659
 C         2.444000         0.743010        -1.203068
 C         3.834762         0.625012        -0.530499
 C         3.493757         0.475391         0.971090
 O         2.101418         0.521061         1.133130
 C         4.019078        -0.618637         0.121835
 O         3.224958        -1.741502        -0.334755
 C         1.845455        -1.508030        -0.059270
 H        -0.250992         0.555896         0.737180
 H        -0.176125         0.962895        -1.101276
 H        -0.510302        -0.680268        -0.366586
 H         2.235063         0.132742        -2.249967
 H         1.994460         1.674386        -1.378858
 H         4.649909         1.171090        -0.932988
 H         4.037469         0.917278         1.765622
 H         4.972533        -1.083558         0.416474
 H         1.396912        -2.149614        -0.822462
 H         1.505021        -1.899221         1.018850
