19
Iteration:  4248
 C         0.097522         0.336482        -0.049431
 C         1.558653         0.056767        -0.198204
 C         2.222463         0.194213        -1.571863
 C         3.664541        -0.021370        -1.061671
 C         3.572044         0.820648         0.303750
 O         2.186172         0.997856         0.631963
 C         4.004806        -0.575224         0.255395
 O         3.279200        -1.660963         0.837738
 C         1.921424        -1.482659         0.358356
 H        -0.063545         1.082626         0.667250
 H        -0.345141         0.678222        -1.033306
 H        -0.439958        -0.613609         0.126138
 H         1.824676        -0.733464        -2.105957
 H         2.095627         1.116545        -2.076618
 H         4.559448         0.222939        -1.600709
 H         4.044030         1.828648         0.531848
 H         4.992193        -0.807874         0.498054
 H         1.679427        -2.264793        -0.341190
 H         1.136690        -1.464916         1.273908
