19
Iteration:  4404charge 0 multiplicity 1
 C         0.018057         0.377485        -0.175925
 C         1.501586        -0.086832        -0.133557
 C         2.290359         0.004950        -1.471832
 C         3.693398         0.184253        -1.080872
 C         3.610519         0.886899         0.228172
 O         2.223469         0.947430         0.571162
 C         4.064587        -0.619175         0.201622
 O         3.258368        -1.594895         0.804206
 C         1.842091        -1.426752         0.549760
 H        -0.690337        -0.418321         0.034624
 H         0.022077         1.083447         0.640230
 H        -0.330480         0.794462        -1.044946
 H         2.099434        -0.956099        -1.993336
 H         1.880081         0.799350        -2.141419
 H         4.447701         0.374284        -1.808424
 H         4.154442         1.663578         0.799751
 H         5.088350        -0.866121         0.487176
 H         1.425871        -2.204197        -0.096390
 H         1.373487        -1.378690         1.593887
