19
Iteration:  2851
 C         0.067698         0.312044        -0.193789
 C         1.575288        -0.046478        -0.263623
 C         2.341690         0.859201        -1.259326
 C         3.746155         0.605775        -0.667614
 C         3.542536         0.526884         0.881525
 O         2.136648         0.450933         1.059532
 C         3.976927        -0.633465         0.091140
 O         3.254399        -1.855375         0.146380
 C         1.877457        -1.491824        -0.222882
 H        -0.684734        -0.289690        -0.782016
 H        -0.211432         0.444994         0.885465
 H        -0.042490         1.311204        -0.516846
 H         2.237310         0.599959        -2.261802
 H         1.956017         1.888801        -1.148917
 H         4.610859         1.037378        -1.124711
 H         3.873766         1.015264         1.753438
 H         5.044262        -0.939989         0.153968
 H         1.608720        -1.916663        -1.228781
 H         1.242638        -1.911411         0.475249
