19
Iteration:   599
 C         0.051563         0.495491        -0.126156
 C         1.582819         0.075333        -0.161357
 C         2.490740         1.304659        -0.037730
 C         3.717939         0.680332         0.602454
 C         3.246701        -0.593759         1.230220
 O         1.835039        -0.628173         1.091765
 C         4.070428        -0.669128        -0.064194
 O         3.466931        -1.065104        -1.346397
 C         2.012844        -0.875073        -1.359549
 H        -0.532768        -0.404906        -0.282735
 H        -0.074364         1.018444         0.863606
 H        -0.133734         1.213829        -0.934671
 H         2.626831         1.806410        -1.016860
 H         2.002492         1.930986         0.633986
 H         4.550772         1.209314         1.118821
 H         3.656508        -0.908036         2.175812
 H         5.122272        -1.002334        -0.032169
 H         1.664655        -0.572105        -2.448244
 H         1.626557        -1.871619        -1.163641
