19
Iteration:  3477
 C         0.090006         0.287237        -0.133485
 C         1.498119         0.032190        -0.246144
 C         2.350171         0.341926        -1.435522
 C         3.763251         0.335796        -0.869496
 C         3.561173         0.714829         0.534267
 O         2.140668         0.883122         0.777732
 C         4.072217        -0.636067         0.229361
 O         3.253326        -1.801381         0.401391
 C         1.770136        -1.459737         0.279041
 H        -0.209819        -0.037770         0.849077
 H        -0.095623         1.402766        -0.174278
 H        -0.577906        -0.226953        -0.894683
 H         2.180280        -0.314878        -2.249044
 H         2.053844         1.454408        -1.681486
 H         4.406047         0.825116        -1.585559
 H         4.142194         1.387939         1.062391
 H         5.131552        -0.903403         0.496914
 H         1.385416        -2.194048        -0.413325
 H         1.442359        -1.722427         1.308574
