19
Iteration:  1514charge 0 multiplicity 1
 C         0.069943         0.423193        -0.349800
 C         1.510076         0.062453        -0.130632
 C         2.494472         1.213548        -0.520534
 C         3.786852         0.767426         0.053302
 C         3.371077        -0.115258         1.229473
 O         1.904037        -0.108061         1.290753
 C         4.070590        -0.745764        -0.051522
 O         3.347641        -1.455492        -1.005488
 C         1.968897        -1.334360        -0.765834
 H        -0.510238         0.608975         0.576131
 H         0.080311         1.396713        -0.933065
 H        -0.564914        -0.336365        -0.832922
 H         2.553320         1.378530        -1.697108
 H         2.110927         2.090543        -0.009618
 H         4.525437         1.624622         0.142171
 H         3.881807        -0.059225         2.226930
 H         5.081397        -1.011352         0.091132
 H         1.426581        -1.459762        -1.666862
 H         1.544749        -2.124704        -0.173983
