19
Iteration:   636
 C         0.100493         0.334197        -0.213536
 C         1.544714         0.166727        -0.140183
 C         2.448708         1.409383         0.030987
 C         3.785473         0.696818         0.380729
 C         3.343059        -0.491362         1.274187
 O         1.931463        -0.801149         1.066811
 C         4.000555        -0.683459        -0.087414
 O         3.277223        -1.311113        -1.066515
 C         2.084577        -0.579776        -1.423896
 H        -0.386334        -0.004079        -1.185079
 H        -0.465504        -0.083429         0.552265
 H        -0.248447         1.437414        -0.284350
 H         2.434182         2.017264        -0.857594
 H         2.109967         2.098907         0.879839
 H         4.571346         1.289423         0.783913
 H         3.819908        -0.706851         2.268651
 H         5.085060        -0.888694        -0.138630
 H         2.190523         0.149132        -2.301396
 H         1.276039        -1.418001        -1.718566
