19
Iteration:  3849
 C         0.038091         0.227832        -0.192021
 C         1.526882         0.060491        -0.090022
 C         2.186077         0.168093        -1.550717
 C         3.700230         0.153566        -1.028415
 C         3.620663         0.763947         0.375112
 O         2.310701         1.006426         0.751735
 C         4.096756        -0.667064         0.137248
 O         3.195294        -1.612725         0.769301
 C         1.816058        -1.399483         0.372740
 H        -0.399204        -0.649543        -0.704755
 H        -0.382612         0.152752         0.869171
 H        -0.278725         1.097086        -0.703729
 H         1.957265        -0.626606        -2.114455
 H         1.982475         1.128975        -2.033107
 H         4.451872         0.589132        -1.713263
 H         4.322889         1.518802         0.586596
 H         5.133368        -0.967289         0.512049
 H         1.484910        -1.971140        -0.559780
 H         1.241968        -1.873702         1.133667
