19
Iteration:  3206
 C         0.060940         0.411199        -0.211205
 C         1.496284         0.058781        -0.212276
 C         2.300136         0.580984        -1.391537
 C         3.679912         0.407862        -0.853849
 C         3.507616         0.641113         0.667629
 O         2.111467         0.679079         0.987716
 C         4.093222        -0.679802         0.214389
 O         3.331553        -1.839448         0.354838
 C         1.901182        -1.536657         0.008336
 H        -0.164372         1.046774         0.620533
 H        -0.205386         0.818220        -1.218689
 H        -0.559576        -0.476041         0.040933
 H         2.081720         0.080728        -2.490804
 H         2.009308         1.632953        -1.521501
 H         4.488987         0.887664        -1.441704
 H         4.114215         1.355326         1.354651
 H         5.141992        -0.874810         0.313960
 H         1.670579        -2.122533        -0.828919
 H         1.286527        -2.019686         0.922871
