19
Iteration:  1764charge 0 multiplicity 1
 C         0.014769         0.379547        -0.313161
 C         1.511190         0.062855        -0.083398
 C         2.479050         1.188506        -0.621423
 C         3.846375         0.783854        -0.040990
 C         3.407774        -0.111495         1.169746
 O         1.958161         0.060071         1.258897
 C         4.072866        -0.734240        -0.023153
 O         3.372052        -1.508483        -0.881625
 C         1.855840        -1.382676        -0.733001
 H        -0.187627         1.339886        -0.880025
 H        -0.526334        -0.388670        -0.913444
 H        -0.620637         0.471287         0.548869
 H         2.532081         1.254270        -1.731858
 H         2.202533         2.069009        -0.134561
 H         4.611049         1.465030         0.186275
 H         3.698381        -0.033574         2.178641
 H         5.126577        -1.191865         0.103896
 H         1.532630        -1.420727        -1.715384
 H         1.515575        -2.272859        -0.071302
