19
Iteration:  4720
 C         0.091241         0.198284        -0.161386
 C         1.600188        -0.070661        -0.179335
 C         2.284618        -0.213666        -1.542695
 C         3.734121         0.120677        -1.171414
 C         3.587831         0.876214         0.185517
 O         2.222972         1.074587         0.536734
 C         4.029925        -0.572428         0.327601
 O         3.130088        -1.630487         0.601772
 C         1.840145        -1.100589         0.850859
 H        -0.503687        -0.451648         0.623181
 H         0.001340         1.266737         0.256527
 H        -0.421500         0.006075        -1.048328
 H         2.122592        -1.250035        -1.825026
 H         1.851671         0.451184        -2.255801
 H         4.656998         0.266971        -1.832781
 H         4.096885         1.700583         0.599536
 H         5.054703        -0.976077         0.570140
 H         1.146961        -2.031632         1.021861
 H         1.751474        -0.554900         1.836393
