19
Iteration:  3020
 C         0.098633         0.293272        -0.077812
 C         1.563674        -0.017203        -0.235098
 C         2.412216         0.739300        -1.311153
 C         3.806650         0.530555        -0.812183
 C         3.479817         0.625816         0.750303
 O         2.093305         0.555148         0.975806
 C         4.024380        -0.624457         0.161413
 O         3.180223        -1.803334         0.282975
 C         1.873640        -1.535020        -0.193095
 H        -0.281737        -0.195213         0.808266
 H        -0.017918         1.390485         0.131824
 H        -0.629122        -0.049020        -0.928343
 H         2.146786         0.272628        -2.358498
 H         2.072720         1.728792        -1.226830
 H         4.699507         1.019287        -1.231586
 H         3.959945         1.248181         1.451141
 H         5.052366        -0.973333         0.433778
 H         1.719556        -2.121062        -1.228336
 H         1.214128        -2.132793         0.504123
