19
Iteration:   852charge 0 multiplicity 1
 C         0.068690         0.473599        -0.041956
 C         1.575489         0.070347        -0.218435
 C         2.405874         1.451963        -0.124176
 C         3.705602         0.811883         0.274524
 C         3.307727        -0.416971         1.254385
 O         1.877381        -0.721432         0.997252
 C         4.111849        -0.687557        -0.060928
 O         3.311268        -1.465225        -0.926878
 C         2.150979        -0.776933        -1.376682
 H        -0.699200         0.034657        -0.792365
 H        -0.365904         0.178438         0.882076
 H        -0.059353         1.613215        -0.097256
 H         2.354119         1.987528        -1.111630
 H         2.042059         2.063811         0.682232
 H         4.523955         1.566795         0.409140
 H         3.707476        -0.489269         2.341380
 H         5.111235        -1.004037        -0.043589
 H         2.368201        -0.176360        -2.252959
 H         1.500182        -1.582231        -1.770239
