19
Iteration:  4794charge 0 multiplicity 1
 C         0.114143         0.321665        -0.184310
 C         1.531696        -0.083795        -0.097820
 C         2.203278        -0.145339        -1.506931
 C         3.721428         0.132638        -1.171409
 C         3.650589         0.869437         0.148166
 O         2.230664         0.962750         0.549812
 C         4.037576        -0.526969         0.140236
 O         3.208906        -1.505907         0.876957
 C         1.762225        -1.339139         0.734117
 H        -0.268262         0.513872         0.750313
 H         0.007157         1.360292        -0.637774
 H        -0.380549        -0.484416        -0.638849
 H         2.220140        -1.218368        -1.946396
 H         1.868550         0.577789        -2.239840
 H         4.574784         0.282664        -1.917629
 H         4.346015         1.594708         0.465359
 H         5.054425        -0.940798         0.390048
 H         1.420778        -2.205344         0.367574
 H         1.294465        -1.144214         1.721635
