19
Iteration:   174charge 0 multiplicity 1
 C         0.116875         0.446924        -0.246469
 C         1.572205         0.027755        -0.082579
 C         2.497233         1.220424         0.269894
 C         3.785772         0.483160         0.782039
 C         3.188613        -0.918162         1.120084
 O         1.727833        -0.855866         1.008736
 C         4.036558        -0.688739        -0.145311
 O         3.493476        -0.464512        -1.455127
 C         2.072437        -0.606759        -1.366070
 H        -0.244074         0.786178         0.818046
 H         0.077734         1.457031        -0.765073
 H        -0.652920        -0.221220        -0.682880
 H         2.583487         1.877456        -0.653336
 H         2.078765         1.888863         1.057085
 H         4.745661         0.876682         1.193292
 H         3.510081        -1.644982         1.896318
 H         5.070614        -1.177017        -0.155345
 H         1.678811        -0.209098        -2.356258
 H         1.789660        -1.732069        -1.348081
