19
Iteration:  2224charge 0 multiplicity 1
 C         0.058505         0.301497        -0.172267
 C         1.554899         0.073148        -0.147600
 C         2.381333         1.062972        -0.950853
 C         3.792911         0.727491        -0.328136
 C         3.459281         0.242352         1.019555
 O         2.087993         0.004255         1.209159
 C         4.060206        -0.696610         0.065616
 O         3.135003        -1.744676        -0.200173
 C         1.976180        -1.233045        -0.830704
 H        -0.161914         0.838322        -1.081429
 H        -0.483181        -0.624830        -0.211208
 H        -0.297257         0.888332         0.719796
 H         2.251755         0.951541        -1.969874
 H         2.170590         2.123190        -0.825518
 H         4.555755         1.527367        -0.337145
 H         4.030625         0.789532         1.829195
 H         5.134385        -1.023696         0.145517
 H         2.086325        -1.067772        -1.905164
 H         1.161636        -1.948034        -0.491027
