19
Iteration:  3528charge 0 multiplicity 1
 C        -0.016421         0.346671        -0.296583
 C         1.481509         0.023164        -0.075517
 C         2.304997         0.102637        -1.380970
 C         3.754233         0.405377        -0.849987
 C         3.561691         0.666203         0.610380
 O         2.172606         0.943951         0.813153
 C         4.106514        -0.653800         0.167454
 O         3.226249        -1.757759         0.184275
 C         1.901261        -1.394377         0.449614
 H        -0.740770        -0.505145        -0.231696
 H        -0.262373         1.087151         0.364445
 H        -0.148218         0.829009        -1.301259
 H         2.356382        -0.788469        -2.030472
 H         1.885893         0.947414        -1.988339
 H         4.457917         1.057805        -1.403274
 H         4.078084         1.454291         1.078258
 H         5.139200        -1.053970         0.342018
 H         1.278537        -2.193487         0.099085
 H         1.871056        -1.388344         1.499861
