19
Iteration:  1563
 C         0.116157         0.375835        -0.241002
 C         1.560365         0.113010        -0.154680
 C         2.565338         1.129711        -0.753542
 C         3.826516         0.769035         0.136442
 C         3.273989        -0.123910         1.223470
 O         1.884930        -0.143644         1.284014
 C         4.019743        -0.748279         0.005542
 O         3.328446        -1.353415        -1.035164
 C         1.930060        -1.249444        -0.755220
 H        -0.225361         0.095682         0.845652
 H        -0.232307         1.377528        -0.486564
 H        -0.434054        -0.425678        -0.793247
 H         2.776655         0.944074        -1.782857
 H         2.219954         2.212758        -0.583580
 H         4.674378         1.363054         0.382542
 H         3.686314        -0.030544         2.190544
 H         5.108875        -0.959629         0.215282
 H         1.307641        -1.448670        -1.701084
 H         1.613826        -2.013200         0.055163
