19
Iteration:    71charge 0 multiplicity 1
 C        -0.010333         0.321180        -0.150864
 C         1.548804         0.231417        -0.154616
 C         2.471285         1.294546         0.476607
 C         3.758346         0.486389         0.841713
 C         3.280769        -0.919849         1.061168
 O         1.834234        -0.981029         0.752727
 C         4.128411        -0.609513        -0.146527
 O         3.335944        -0.918533        -1.267861
 C         2.168224        -0.162517        -1.521579
 H        -0.414701        -0.499381        -0.811205
 H        -0.460195         0.185313         0.830752
 H        -0.362574         1.325760        -0.524553
 H         2.720238         2.055279        -0.320785
 H         2.011426         1.900959         1.300757
 H         4.528014         1.032013         1.412186
 H         3.549280        -1.637896         1.824241
 H         5.148232        -1.026847        -0.354568
 H         2.330670         0.671947        -2.232496
 H         1.495648        -0.979522        -1.914924
