19
Iteration:  1667
 C         0.088712         0.250080        -0.176369
 C         1.587495         0.082658        -0.217084
 C         2.465944         1.330373        -0.568811
 C         3.852658         0.757855        -0.091524
 C         3.401381        -0.000893         1.179458
 O         1.983365        -0.094586         1.204578
 C         3.946832        -0.727739         0.035778
 O         3.255069        -1.670005        -0.639189
 C         1.946399        -1.167218        -1.006341
 H        -0.527428        -0.551501        -0.663871
 H        -0.379099         0.393872         0.804674
 H        -0.210820         1.137276        -0.701947
 H         2.313272         1.546259        -1.704032
 H         2.128460         2.158990         0.026223
 H         4.710937         1.399520        -0.203522
 H         3.781172         0.050171         2.163902
 H         5.030353        -1.020446         0.136899
 H         2.093212        -0.894996        -2.081260
 H         1.190853        -1.945278        -0.814596
