19
Iteration:  1110charge 0 multiplicity 1
 C         0.051157         0.441538        -0.146806
 C         1.535171         0.071994        -0.192585
 C         2.545736         1.249464        -0.396260
 C         3.764090         0.763066         0.294535
 C         3.307299        -0.289837         1.240095
 O         1.887755        -0.392633         1.143607
 C         4.057753        -0.686944         0.011801
 O         3.416509        -1.308235        -1.088853
 C         1.901802        -1.105331        -1.098899
 H        -0.461919         0.160637        -1.061242
 H        -0.206284        -0.284810         0.699043
 H        -0.085485         1.491194         0.102968
 H         2.764940         1.397913        -1.418860
 H         2.303742         2.102186         0.205683
 H         4.542883         1.528806         0.468760
 H         3.637039        -0.313498         2.228966
 H         5.040781        -1.057036         0.106069
 H         1.663637        -0.828730        -2.141963
 H         1.392975        -1.967117        -0.756021
