19
Iteration:  4270
 C         0.010197         0.365035        -0.088696
 C         1.494530        -0.112517        -0.140707
 C         2.269682        -0.016632        -1.425185
 C         3.739282         0.174036        -1.049655
 C         3.656426         0.894517         0.293287
 O         2.240410         1.031330         0.582918
 C         4.085617        -0.553340         0.216977
 O         3.193484        -1.660611         0.723829
 C         1.815590        -1.443719         0.429254
 H        -0.153163         0.972553         0.726531
 H        -0.224390         0.893840        -1.043163
 H        -0.673056        -0.486184        -0.019949
 H         2.016544        -0.922510        -2.067932
 H         2.071335         0.898879        -1.920070
 H         4.379870         0.617983        -1.814168
 H         4.354637         1.608782         0.817373
 H         5.065296        -0.842803         0.506142
 H         1.661905        -2.143030        -0.363519
 H         1.128174        -1.834189         1.334195
