19
Iteration:  1387
 C         0.087607         0.352952        -0.311709
 C         1.566295         0.087223        -0.086908
 C         2.512303         1.240631        -0.533697
 C         3.781027         0.810933         0.012966
 C         3.372353        -0.136225         1.247030
 O         1.939173        -0.264238         1.302935
 C         4.054111        -0.672356         0.011989
 O         3.299171        -1.468673        -0.947172
 C         1.885064        -1.187443        -0.922953
 H         0.090833         1.127206        -1.105648
 H        -0.396293        -0.520223        -0.607266
 H        -0.429817         0.500138         0.594396
 H         2.488000         1.120373        -1.574305
 H         2.201082         2.341920        -0.330577
 H         4.649487         1.506152         0.189225
 H         3.843767        -0.094662         2.256880
 H         5.052938        -1.058948         0.036507
 H         1.632128        -0.847107        -1.956346
 H         1.365569        -1.953519        -0.330298
