19
Iteration:  3277charge 0 multiplicity 1
 C         0.027620         0.311467        -0.151885
 C         1.545701        -0.033513        -0.172921
 C         2.346090         0.455089        -1.431803
 C         3.770762         0.419460        -0.844387
 C         3.532546         0.701330         0.635058
 O         2.116546         0.768451         0.920402
 C         4.095450        -0.628311         0.191223
 O         3.250038        -1.781428         0.294114
 C         1.816796        -1.508601         0.140987
 H        -0.608744        -0.636606         0.106274
 H        -0.047347         1.217539         0.449903
 H        -0.347426         0.607602        -1.197600
 H         2.224043        -0.092682        -2.354292
 H         2.217903         1.564528        -1.666956
 H         4.584114         0.923274        -1.330572
 H         4.175230         1.262600         1.319207
 H         5.093341        -0.976718         0.528242
 H         1.428473        -2.097172        -0.749031
 H         1.217640        -1.798628         0.953288
