19
Iteration:  4549
 C         0.158187         0.315374        -0.258121
 C         1.574061        -0.065076        -0.142127
 C         2.296426        -0.256726        -1.502858
 C         3.698894         0.213583        -1.083685
 C         3.566192         0.855369         0.307651
 O         2.200229         1.043412         0.596048
 C         4.029239        -0.610557         0.157978
 O         3.133446        -1.640118         0.610668
 C         1.867651        -1.201368         0.795757
 H        -0.171390         1.425248        -0.230195
 H        -0.351832        -0.262390        -0.958195
 H        -0.360421         0.008079         0.698178
 H         2.340685        -1.322626        -1.709233
 H         1.841563         0.366811        -2.387306
 H         4.315108         0.621789        -1.958591
 H         4.146710         1.700603         0.445103
 H         5.053634        -0.884499         0.502113
 H         1.264067        -2.098317         0.986883
 H         1.717932        -0.631860         1.885945
