19
Iteration:   467
 C         0.090748         0.307596        -0.107322
 C         1.564811         0.166460        -0.146423
 C         2.457481         1.413435         0.036650
 C         3.736604         0.731332         0.563715
 C         3.253054        -0.631685         1.199791
 O         1.910346        -0.813897         0.909992
 C         4.058932        -0.697785        -0.116799
 O         3.271982        -1.282016        -1.104356
 C         2.165253        -0.442230        -1.425674
 H        -0.096298         1.395025        -0.207562
 H        -0.664234        -0.083818        -0.861539
 H        -0.240961        -0.101070         0.749697
 H         2.400726         2.088306        -0.839495
 H         2.057692         1.936873         0.820970
 H         4.549333         1.228678         1.068351
 H         3.579532        -0.953004         2.233935
 H         5.049180        -1.053795        -0.188063
 H         2.424533         0.463465        -2.077034
 H         1.515596        -1.224654        -1.791670
