19
Iteration:  1676charge 0 multiplicity 1
 C         0.105105         0.280480        -0.137520
 C         1.584617         0.064998        -0.115240
 C         2.493972         1.317904        -0.716907
 C         3.791608         0.773055        -0.086167
 C         3.326159        -0.004150         1.215005
 O         1.942651        -0.103166         1.203457
 C         4.003892        -0.728355         0.059523
 O         3.294665        -1.679483        -0.747528
 C         1.955515        -1.162864        -0.956803
 H        -0.354848        -0.403689        -0.814348
 H        -0.318192         0.271056         0.925415
 H        -0.000823         1.294702        -0.569293
 H         2.526374         1.620384        -1.793768
 H         2.196081         2.095382        -0.034106
 H         4.656307         1.519419        -0.061114
 H         3.734316         0.093449         2.227550
 H         5.010635        -1.128456         0.266261
 H         1.796951        -0.978482        -1.920921
 H         1.242085        -2.013353        -0.798147
