19
Iteration:  4846
 C         0.038872         0.257796        -0.105882
 C         1.550111         0.023522        -0.060024
 C         2.200063        -0.071805        -1.457299
 C         3.693707        -0.109264        -1.128879
 C         3.575369         0.869449         0.108719
 O         2.310309         1.090552         0.510072
 C         4.041796        -0.486939         0.305413
 O         3.203679        -1.522076         0.912851
 C         1.867486        -1.382908         0.485260
 H        -0.098262         1.145596         0.449669
 H        -0.337498         0.604629        -1.123787
 H        -0.561248        -0.623079         0.343264
 H         1.917473        -0.856976        -2.184121
 H         2.076381         0.886768        -1.995175
 H         4.420297        -0.143796        -1.997452
 H         4.216234         1.670498         0.266342
 H         5.089146        -0.797080         0.561613
 H         1.557020        -2.197721        -0.394232
 H         1.314570        -1.591667         1.433441
