19
Iteration:  4872
 C         0.022758         0.284771        -0.076102
 C         1.537148         0.019209        -0.159607
 C         2.222933        -0.093313        -1.523395
 C         3.682343         0.093173        -1.070472
 C         3.620641         0.873394         0.217279
 O         2.280718         1.145232         0.431694
 C         4.061118        -0.659425         0.182523
 O         3.228930        -1.567103         0.945611
 C         1.828509        -1.421305         0.584465
 H        -0.222208         1.239286         0.498570
 H        -0.450475         0.244499        -1.110901
 H        -0.463778        -0.455385         0.482885
 H         2.163504        -1.020087        -2.199339
 H         1.949026         0.746162        -2.216485
 H         4.378463         0.117280        -1.931388
 H         4.329228         1.723865         0.482498
 H         5.085937        -0.919690         0.406398
 H         1.442864        -2.329827        -0.018944
 H         1.354541        -1.362278         1.602367
