19
Iteration:  4839charge 0 multiplicity 1
 C         0.046710         0.291885        -0.085636
 C         1.555298         0.052629        -0.121515
 C         2.238757        -0.069768        -1.498165
 C         3.690104        -0.102871        -1.112695
 C         3.574949         0.885144         0.109241
 O         2.275361         1.024211         0.552465
 C         4.041080        -0.558138         0.248772
 O         3.231102        -1.488560         0.941480
 C         1.849342        -1.381381         0.492585
 H        -0.301007         1.174485         0.492456
 H        -0.285275         0.605939        -1.135095
 H        -0.400821        -0.600027         0.175113
 H         1.842403        -0.978218        -2.096696
 H         2.004729         0.889257        -1.975960
 H         4.313240        -0.156760        -2.047616
 H         4.205810         1.776593         0.334082
 H         5.110104        -0.606906         0.578885
 H         1.572633        -2.141900        -0.171886
 H         1.308128        -1.554568         1.445904
