19
Iteration:  2875
 C         0.041403         0.284314        -0.200382
 C         1.554280         0.020983        -0.133446
 C         2.379236         0.762128        -1.261000
 C         3.812094         0.580698        -0.655947
 C         3.503134         0.513928         0.809033
 O         2.089044         0.569168         1.099939
 C         4.062566        -0.670050         0.143953
 O         3.265506        -1.826882        -0.010726
 C         1.830736        -1.497011        -0.178948
 H        -0.346570         0.133722        -1.266592
 H        -0.512095        -0.339944         0.487163
 H        -0.318188         1.306210         0.130950
 H         2.252895         0.178686        -2.243903
 H         2.184648         1.765188        -1.472800
 H         4.527684         1.323665        -0.926235
 H         3.981536         1.097496         1.596564
 H         5.033293        -1.034590         0.349536
 H         1.417671        -2.054616        -1.103305
 H         1.329649        -1.830785         0.625355
