19
Iteration:  1425
 C         0.055563         0.308809        -0.216187
 C         1.542489         0.142415        -0.181924
 C         2.416243         1.370294        -0.391611
 C         3.822459         0.812834        -0.024470
 C         3.417765        -0.100799         1.169232
 O         1.965475        -0.215729         1.131102
 C         4.051355        -0.695382        -0.020476
 O         3.265361        -1.732702        -0.648014
 C         1.967735        -1.110109        -1.098567
 H        -0.243631         1.350086        -0.393653
 H        -0.496912        -0.391191        -0.978191
 H        -0.226907         0.110763         0.888857
 H         2.315782         1.798476        -1.536407
 H         2.253005         2.223732         0.258950
 H         4.577249         1.542012         0.162172
 H         3.743466        -0.004150         2.164549
 H         5.131172        -0.965696        -0.041629
 H         2.122240        -0.938311        -2.172459
 H         1.264459        -1.952029        -1.047207
