19
Iteration:  4456charge 0 multiplicity 1
 C        -0.011352         0.261490        -0.116091
 C         1.521203        -0.079300        -0.129833
 C         2.288898        -0.000402        -1.550953
 C         3.672690         0.139168        -1.089757
 C         3.684955         0.843835         0.221008
 O         2.300084         0.949432         0.572885
 C         4.090108        -0.647559         0.206129
 O         3.191152        -1.461252         0.882499
 C         1.773796        -1.352860         0.532708
 H        -0.448661        -0.181396        -0.964296
 H        -0.546471        -0.165730         0.837732
 H        -0.252942         1.366148        -0.226324
 H         2.196416        -0.875886        -2.270563
 H         1.878959         0.892595        -1.956157
 H         4.557715         0.385138        -1.720852
 H         4.191533         1.804476         0.358620
 H         5.121321        -1.055974         0.333178
 H         1.353305        -2.109284        -0.161586
 H         1.273808        -1.457181         1.497456
