19
Iteration:  1783charge 0 multiplicity 1
 C         0.044291         0.265815        -0.261430
 C         1.575397         0.115701        -0.207162
 C         2.526470         1.187495        -0.654066
 C         3.867217         0.809028        -0.039192
 C         3.385229         0.044147         1.208590
 O         1.984253        -0.092738         1.244596
 C         4.040668        -0.713049         0.039265
 O         3.212079        -1.624440        -0.774646
 C         1.875415        -1.211055        -0.823521
 H        -0.198369         1.246706        -0.525328
 H        -0.437543        -0.441317        -1.000291
 H        -0.277644         0.056525         0.768788
 H         2.583881         1.344379        -1.679719
 H         2.156097         2.178284        -0.233164
 H         4.738180         1.466573        -0.172766
 H         3.926328         0.068309         2.113610
 H         5.080683        -1.070191         0.122485
 H         1.628128        -1.125841        -1.951285
 H         1.298391        -1.880066        -0.244457
