19
Iteration:  4004
 C         0.075186         0.239500        -0.122361
 C         1.564421        -0.011383        -0.160214
 C         2.233462         0.159087        -1.563582
 C         3.681605         0.070968        -1.119175
 C         3.618480         0.832514         0.367382
 O         2.238274         1.034513         0.587281
 C         4.018002        -0.612947         0.267820
 O         3.216669        -1.691449         0.727156
 C         1.857319        -1.362774         0.542534
 H        -0.222438         1.014674         0.679478
 H        -0.269252         0.441917        -1.109186
 H        -0.410684        -0.734163         0.217047
 H         2.050236        -0.523318        -2.328052
 H         1.968227         1.167984        -1.959029
 H         4.547674         0.350961        -1.741624
 H         4.177918         1.701589         0.822820
 H         5.004569        -0.983008         0.304996
 H         1.389659        -2.101820        -0.056999
 H         1.329402        -1.222917         1.476442
