19
Iteration:  3195charge 0 multiplicity 1
 C         0.000854         0.394352        -0.214347
 C         1.563167        -0.018065        -0.160813
 C         2.290772         0.541828        -1.422104
 C         3.687109         0.535757        -0.802797
 C         3.528372         0.604766         0.682683
 O         2.140405         0.664391         0.967986
 C         4.081638        -0.698927         0.227135
 O         3.297656        -1.829475         0.277474
 C         1.901828        -1.497345         0.063223
 H        -0.066795         1.355876         0.203683
 H        -0.337909         0.579709        -1.278990
 H        -0.687415        -0.411270         0.178614
 H         2.257954        -0.113851        -2.480690
 H         1.980638         1.564754        -1.591485
 H         4.601938         0.939684        -1.254660
 H         4.095180         1.469093         1.225995
 H         5.106619        -0.976366         0.274566
 H         1.593327        -1.950922        -0.809156
 H         1.227026        -1.801655         1.019472
