19
Iteration:  2377
 C         0.055589         0.204368        -0.225086
 C         1.582964         0.062005        -0.165699
 C         2.531023         0.956094        -1.031730
 C         3.841846         0.723197        -0.366917
 C         3.493917         0.319273         1.080338
 O         2.028139         0.267547         1.193617
 C         4.033795        -0.694060         0.116958
 O         3.195007        -1.674053        -0.454161
 C         1.792735        -1.396685        -0.462335
 H        -0.456090        -0.701877        -0.170374
 H        -0.302309         0.829074         0.562888
 H        -0.312978         0.775459        -1.145350
 H         2.420630         0.658290        -1.992277
 H         2.110732         1.957755        -0.809716
 H         4.729733         1.298585        -0.635648
 H         3.941680         0.671685         1.979971
 H         5.020477        -1.037147         0.224412
 H         1.467200        -1.520734        -1.443732
 H         1.248688        -2.159620         0.126623
