19
Iteration:   400charge 0 multiplicity 1
 C         0.105170         0.458671        -0.226521
 C         1.632879         0.112146        -0.047605
 C         2.522784         1.301143         0.075005
 C         3.758238         0.635341         0.639921
 C         3.225659        -0.750306         1.237454
 O         1.839850        -0.811347         1.060988
 C         4.010446        -0.640358        -0.117556
 O         3.393360        -0.856614        -1.389263
 C         2.004398        -0.719414        -1.321859
 H         0.008039        -0.119276        -1.179527
 H        -0.708707         0.071507         0.444998
 H        -0.052898         1.453644        -0.372173
 H         2.593615         1.710187        -0.935489
 H         2.187494         2.066022         0.671239
 H         4.550362         1.230515         1.056915
 H         3.639640        -1.159435         2.105143
 H         5.060488        -1.063764        -0.090107
 H         1.825145        -0.284241        -2.343825
 H         1.466311        -1.641153        -1.123106
