19
Iteration:  3015charge 0 multiplicity 1
 C         0.043579         0.262631        -0.087074
 C         1.561733        -0.010376        -0.252880
 C         2.389707         0.674494        -1.298500
 C         3.798827         0.558220        -0.797204
 C         3.504613         0.611505         0.750834
 O         2.112896         0.554926         0.989565
 C         4.056154        -0.645663         0.147491
 O         3.167836        -1.792839         0.280632
 C         1.876527        -1.505150        -0.202013
 H        -0.291824        -0.065183         0.934156
 H        -0.080005         1.341518        -0.144057
 H        -0.570086        -0.036251        -0.879451
 H         2.159537         0.380827        -2.275389
 H         2.211435         1.835931        -1.447583
 H         4.678650         1.119509        -1.125056
 H         4.093793         1.167480         1.544241
 H         5.050561        -0.898689         0.445639
 H         1.699170        -1.952681        -1.115833
 H         1.202757        -2.073914         0.496517
