19
Iteration:  4981
 C        -0.070421         0.282619        -0.067108
 C         1.529121        -0.079214        -0.194662
 C         2.377916        -0.089361        -1.512472
 C         3.860150         0.095458        -1.139137
 C         3.591326         0.825488         0.225721
 O         2.251702         1.035452         0.526985
 C         4.048318        -0.538095         0.281934
 O         3.174719        -1.599332         0.596130
 C         1.759595        -1.297029         0.805258
 H        -0.471971         0.624087        -1.039500
 H        -0.699636        -0.566550         0.119261
 H        -0.107245         0.963665         0.682819
 H         2.251410        -0.977278        -2.191000
 H         2.118982         0.851001        -2.015275
 H         4.464949         0.507156        -1.884419
 H         4.301929         1.597579         0.617965
 H         5.028652        -0.795417         0.540830
 H         1.122993        -2.222786         0.501089
 H         1.441626        -0.975133         1.781198
