19
Iteration:  4503
 C         0.025828         0.326709        -0.179350
 C         1.486767         0.017885        -0.143366
 C         2.235217        -0.116978        -1.455705
 C         3.687689         0.067431        -1.021633
 C         3.594754         0.864507         0.225181
 O         2.190528         1.132624         0.508885
 C         4.142354        -0.603484         0.276105
 O         3.290450        -1.668425         0.656294
 C         1.853735        -1.377301         0.693438
 H        -0.303390         0.778011        -1.190525
 H        -0.628547        -0.555991         0.011587
 H        -0.226217         1.122967         0.446346
 H         1.984353        -1.063857        -1.953259
 H         2.055544         0.807554        -2.124629
 H         4.434261         0.421571        -1.671406
 H         4.233441         1.745762         0.499440
 H         5.166750        -0.841840         0.499254
 H         1.303490        -2.197852         0.209070
 H         1.396066        -1.404319         1.777329
