19
Iteration:    21
 C         0.009975         0.465561        -0.184429
 C         1.506871         0.082894        -0.084282
 C         2.384355         1.192022         0.525485
 C         3.716467         0.460361         0.765437
 C         3.252129        -0.967515         0.996887
 O         1.786990        -0.919396         0.932772
 C         4.138125        -0.638538        -0.184519
 O         3.560295        -0.796912        -1.463425
 C         2.167539        -0.238868        -1.469148
 H        -0.606285         0.066401         0.740785
 H        -0.125403         1.553336        -0.169015
 H        -0.546680         0.078148        -1.026322
 H         2.370888         2.101355        -0.116722
 H         1.947426         1.411709         1.497085
 H         4.373211         0.959791         1.434555
 H         3.583332        -1.576985         1.813595
 H         5.125255        -0.957279        -0.205047
 H         2.170301         0.768350        -1.970942
 H         1.468987        -0.881200        -2.059947
