19
Iteration:  4498charge 0 multiplicity 1
 C         0.035014         0.312930        -0.181402
 C         1.509968         0.000673        -0.115390
 C         2.243335        -0.092684        -1.520196
 C         3.715839         0.076169        -1.016444
 C         3.569668         0.844112         0.231001
 O         2.193957         1.104947         0.521501
 C         4.096766        -0.581369         0.270780
 O         3.288761        -1.683700         0.699881
 C         1.822334        -1.323020         0.682306
 H        -0.243016         0.662007        -1.133122
 H        -0.617695        -0.507499         0.224457
 H        -0.224414         1.163106         0.558939
 H         2.026640        -1.006789        -2.109673
 H         2.016835         0.723718        -2.146886
 H         4.474188         0.367687        -1.802764
 H         4.205444         1.671364         0.486669
 H         5.188866        -0.802855         0.316613
 H         1.490437        -2.211450         0.075864
 H         1.469107        -1.257138         1.665469
