19
Iteration:  2995charge 0 multiplicity 1
 C        -0.016568         0.260934        -0.208989
 C         1.520951         0.082147        -0.140850
 C         2.379462         0.615488        -1.335875
 C         3.736346         0.583535        -0.697161
 C         3.602173         0.565487         0.839892
 O         2.194308         0.566483         1.066648
 C         4.103710        -0.675292         0.128896
 O         3.184358        -1.747787         0.175550
 C         1.817071        -1.426476        -0.190789
 H        -0.454747         0.322646         0.819967
 H        -0.471299         1.040781        -0.765764
 H        -0.433334        -0.715615        -0.605910
 H         2.361845        -0.112220        -2.175507
 H         1.907320         1.552941        -1.763685
 H         4.642409         1.050711        -1.196409
 H         4.130792         1.298155         1.528345
 H         5.100385        -1.109510         0.121578
 H         1.636922        -1.911986        -1.203979
 H         1.227703        -2.212847         0.516616
