19
Iteration:  4987
 C        -0.028603         0.259260        -0.105881
 C         1.552713        -0.086371        -0.151187
 C         2.361838        -0.083988        -1.518488
 C         3.820082         0.064083        -1.109643
 C         3.602115         0.802330         0.225871
 O         2.239651         1.076309         0.530052
 C         4.031179        -0.580989         0.241498
 O         3.220875        -1.590304         0.641755
 C         1.723356        -1.280668         0.734295
 H        -0.554016         0.665854        -0.974928
 H        -0.736893        -0.587753         0.377495
 H        -0.112898         1.101928         0.759355
 H         2.216385        -0.862306        -2.238107
 H         2.126443         0.844547        -2.073308
 H         4.529271         0.625322        -1.828217
 H         4.023218         1.747706         0.553881
 H         5.064346        -0.905945         0.596109
 H         1.277508        -2.133893         0.334738
 H         1.474051        -1.015383         1.822901
