19
Iteration:  1259
 C         0.050503         0.323914        -0.152237
 C         1.583031         0.167439        -0.171514
 C         2.397966         1.389938        -0.381030
 C         3.724189         0.745931         0.018791
 C         3.361009        -0.147218         1.205607
 O         1.991300        -0.353446         1.103365
 C         4.028382        -0.695968        -0.007952
 O         3.260402        -1.682963        -0.710496
 C         2.078306        -0.967773        -1.185419
 H        -0.350382        -0.359802         0.573292
 H        -0.098044         1.276817         0.373470
 H        -0.277579         0.289696        -1.208980
 H         2.578148         1.874765        -1.363708
 H         2.108170         2.164572         0.237005
 H         4.610453         1.393152         0.219431
 H         3.721621        -0.203622         2.207410
 H         5.045166        -0.954578         0.000350
 H         2.089273        -0.686472        -2.192427
 H         1.280358        -1.675346        -1.184208
