19
Iteration:  3959
 C         0.093151         0.269630        -0.237914
 C         1.552549         0.000242        -0.083363
 C         2.259586        -0.064732        -1.466026
 C         3.688571         0.262692        -1.008720
 C         3.626808         0.838927         0.368007
 O         2.249660         0.998376         0.671328
 C         4.042313        -0.593920         0.203485
 O         3.179389        -1.665154         0.432645
 C         1.786996        -1.338878         0.701032
 H        -0.214672         1.365034        -0.090124
 H        -0.088736        -0.080543        -1.281574
 H        -0.537399        -0.316418         0.400642
 H         2.102960        -0.987491        -1.942763
 H         1.950055         0.738755        -2.183907
 H         4.456849         0.288296        -1.747421
 H         4.374956         1.591963         0.818040
 H         5.080972        -0.804168         0.386573
 H         1.192801        -2.127599         0.376031
 H         1.640694        -1.102709         1.764151
