19
Iteration:  4000charge 0 multiplicity 1
 C         0.072837         0.236961        -0.104168
 C         1.541528         0.027055        -0.134107
 C         2.254557         0.189039        -1.577683
 C         3.686101         0.083148        -1.095872
 C         3.608763         0.795534         0.341865
 O         2.215507         1.019496         0.574358
 C         4.037350        -0.640677         0.255737
 O         3.240666        -1.699089         0.728189
 C         1.851213        -1.344025         0.545992
 H        -0.295833         1.045790         0.507985
 H        -0.333976         0.370309        -1.161582
 H        -0.334025        -0.694569         0.102374
 H         2.108017        -0.563670        -2.420588
 H         1.922802         1.227978        -1.920632
 H         4.468330         0.323457        -1.781309
 H         4.131016         1.635663         0.874619
 H         5.099242        -0.938845         0.368738
 H         1.341388        -2.209549         0.081497
 H         1.392663        -1.107161         1.612822
