19
Iteration:  3881charge 0 multiplicity 1
 C         0.038217         0.212108        -0.172067
 C         1.558614        -0.000693        -0.153574
 C         2.310735         0.203259        -1.550902
 C         3.744300         0.150841        -1.020696
 C         3.607229         0.842994         0.367715
 O         2.284429         0.991092         0.700434
 C         3.995038        -0.640065         0.153873
 O         3.181249        -1.658812         0.654511
 C         1.774507        -1.419485         0.548107
 H        -0.345255         0.126466        -1.195634
 H        -0.498448        -0.538247         0.533409
 H        -0.200164         1.128035         0.316750
 H         2.107541        -0.630460        -2.203560
 H         1.982870         1.146358        -2.030765
 H         4.588740         0.428538        -1.666165
 H         4.254547         1.662213         0.554053
 H         5.110974        -0.857464         0.346313
 H         1.296157        -2.100954        -0.056388
 H         1.334303        -1.486477         1.540913
