19
Iteration:  2599charge 0 multiplicity 1
 C        -0.067585         0.377905        -0.173835
 C         1.525860         0.035306        -0.231061
 C         2.418963         0.912539        -1.157389
 C         3.796169         0.704208        -0.470487
 C         3.534259         0.417994         0.992147
 O         2.064423         0.371048         1.074489
 C         4.140808        -0.676927         0.091401
 O         3.264462        -1.883433        -0.100337
 C         1.857892        -1.526895        -0.394287
 H        -0.699782        -0.536202        -0.022778
 H        -0.169187         0.973024         0.797191
 H        -0.585119         0.924553        -0.863917
 H         2.427199         0.739076        -2.315434
 H         2.075902         1.915166        -1.045440
 H         4.538421         1.439957        -0.791384
 H         4.066310         0.918565         1.789872
 H         5.168485        -0.936451         0.112427
 H         1.707021        -1.692041        -1.466671
 H         1.155578        -2.126915         0.221736
