19
Iteration:  4071charge 0 multiplicity 1
 C         0.165582         0.388772        -0.156092
 C         1.540870        -0.145973        -0.176906
 C         2.238401         0.067239        -1.552911
 C         3.676103         0.133875        -1.095756
 C         3.566907         0.872299         0.243772
 O         2.169331         0.917495         0.684008
 C         4.037345        -0.556804         0.198273
 O         3.234385        -1.631623         0.769898
 C         1.873488        -1.408444         0.607115
 H        -0.536452         0.061839         0.640995
 H         0.278435         1.449251        -0.108344
 H        -0.285427         0.194217        -1.215753
 H         1.914290        -0.767945        -2.193691
 H         1.910933         0.985761        -2.039433
 H         4.359626         0.442038        -1.945607
 H         4.183152         1.619146         0.618717
 H         5.110816        -0.917337         0.257725
 H         1.430409        -2.280120         0.247103
 H         1.414243        -1.196098         1.557061
