19
Iteration:  4127
 C         0.080910         0.209332        -0.109564
 C         1.550124         0.084658        -0.131887
 C         2.351807        -0.126564        -1.522864
 C         3.723640         0.201504        -1.007590
 C         3.581045         0.802404         0.333158
 O         2.236913         1.095805         0.622720
 C         4.012921        -0.604991         0.256717
 O         3.159799        -1.717048         0.394930
 C         1.792315        -1.195658         0.733848
 H        -0.246300        -0.636746         0.445036
 H        -0.454961         1.135964         0.203581
 H        -0.244877        -0.160401        -1.194148
 H         2.252653        -1.207466        -1.843632
 H         1.938130         0.534362        -2.223191
 H         4.437647         0.467307        -1.771997
 H         4.393316         1.464548         0.664860
 H         5.089458        -0.775102         0.503055
 H         1.171946        -1.981768         0.396744
 H         1.624907        -0.959331         1.792097
