19
Iteration:  2301
 C        -0.013706         0.371782        -0.297718
 C         1.470012        -0.013864        -0.138024
 C         2.522879         0.897304        -1.017043
 C         3.867465         0.821607        -0.261493
 C         3.460344         0.231020         1.110836
 O         2.108541         0.188287         1.238418
 C         4.060956        -0.682339         0.138901
 O         3.233742        -1.571378        -0.605575
 C         1.799545        -1.465149        -0.451355
 H        -0.373597         0.939500         0.517363
 H        -0.190128         0.873916        -1.224686
 H        -0.686633        -0.586638        -0.279459
 H         2.652745         0.368721        -1.914395
 H         2.156445         1.914052        -1.232466
 H         4.630372         1.606069        -0.448880
 H         3.895639         0.517268         2.070009
 H         5.032855        -1.051915         0.276427
 H         1.324717        -1.728327        -1.384059
 H         1.492913        -2.288015         0.357959
