19
Iteration:   995
 C         0.035526         0.445465        -0.152122
 C         1.547491         0.060839        -0.168409
 C         2.487705         1.277617        -0.352761
 C         3.812137         0.798055         0.369455
 C         3.303261        -0.378596         1.270603
 O         1.894051        -0.469350         1.149815
 C         4.021185        -0.680643        -0.041908
 O         3.409302        -1.309640        -1.123910
 C         1.977870        -0.979629        -1.165761
 H        -0.185406         0.660767         0.902355
 H        -0.110580         1.265063        -0.710541
 H        -0.674076        -0.321779        -0.426644
 H         2.590356         1.292875        -1.450464
 H         2.151364         2.174401         0.158516
 H         4.702913         1.392171         0.635739
 H         3.625129        -0.646404         2.261653
 H         5.105170        -1.010914        -0.054867
 H         1.679618        -0.600480        -2.160887
 H         1.458119        -1.917679        -0.826178
