19
Iteration:  3638charge 0 multiplicity 1
 C         0.014269         0.320842        -0.178620
 C         1.516123        -0.050308        -0.189371
 C         2.293277         0.396357        -1.496296
 C         3.727202         0.267586        -1.026673
 C         3.625778         0.714346         0.453042
 O         2.186538         0.838488         0.725409
 C         4.012183        -0.644713         0.205648
 O         3.238972        -1.632269         0.674062
 C         1.866698        -1.553218         0.364055
 H        -0.209291         1.093518        -0.932623
 H        -0.677471        -0.444999        -0.252147
 H        -0.046462         0.900444         0.815323
 H         2.325522        -0.301598        -2.294851
 H         1.831215         1.375519        -1.679651
 H         4.544563         0.528221        -1.676265
 H         4.244215         1.474368         0.945979
 H         5.078538        -0.881554         0.117045
 H         1.546002        -2.456541        -0.373738
 H         1.311605        -1.623003         1.247695
