19
Iteration:  3088charge 0 multiplicity 1
 C         0.066873         0.273095        -0.289588
 C         1.589023        -0.026965        -0.175819
 C         2.353644         0.510394        -1.332420
 C         3.782039         0.629337        -0.729205
 C         3.557249         0.667319         0.805429
 O         2.198641         0.607139         1.107820
 C         4.030795        -0.652923         0.147042
 O         3.161713        -1.782418         0.024580
 C         1.783794        -1.451076         0.063200
 H        -0.417402        -0.495799        -0.993661
 H        -0.444751         0.156914         0.760098
 H        -0.211514         1.261421        -0.697013
 H         2.382126        -0.198531        -2.219544
 H         2.037664         1.478928        -1.732948
 H         4.612189         1.120254        -1.204895
 H         4.137674         1.371137         1.483446
 H         5.024014        -1.018985         0.217041
 H         1.252476        -2.184591        -0.723672
 H         1.324627        -1.708367         1.014934
