19
Iteration:  2073
 C         0.021663         0.364038        -0.183998
 C         1.520838         0.052187        -0.193851
 C         2.451235         1.151859        -0.779669
 C         3.791469         0.817992        -0.204232
 C         3.445679         0.123943         1.090712
 O         2.009130         0.026375         1.182283
 C         4.043837        -0.684799         0.023183
 O         3.273547        -1.684140        -0.497058
 C         1.940854        -1.362357        -0.728911
 H        -0.080671         1.092755         0.591898
 H        -0.206821         0.769216        -1.186866
 H        -0.638068        -0.569409        -0.013622
 H         2.550445         0.951959        -1.948422
 H         2.082395         2.100100        -0.451403
 H         4.675318         1.414496        -0.351421
 H         3.865554         0.067650         2.096089
 H         5.127223        -1.020721         0.157617
 H         1.743625        -1.368689        -1.862107
 H         1.189568        -2.117385        -0.400069
