19
Iteration:   217charge 0 multiplicity 1
 C         0.082324         0.324348        -0.101247
 C         1.545560         0.178874        -0.145188
 C         2.485954         1.342112         0.253881
 C         3.769821         0.532380         0.746565
 C         3.206797        -0.898267         1.093448
 O         1.806483        -0.862744         0.856877
 C         4.024388        -0.651652        -0.098890
 O         3.468895        -0.858420        -1.340208
 C         2.110262        -0.409442        -1.388779
 H        -0.613147        -0.612708        -0.093997
 H        -0.172956         0.927832         0.825564
 H        -0.192277         0.885734        -0.998899
 H         2.796899         1.932442        -0.721715
 H         2.017089         2.175602         0.861488
 H         4.540702         1.078171         1.344417
 H         3.364882        -1.460622         2.016606
 H         5.131104        -0.927726        -0.225672
 H         1.934510         0.244976        -2.296369
 H         1.504054        -1.386971        -1.457342
