19
Iteration:  1135
 C         0.070182         0.451467        -0.288485
 C         1.533171        -0.010605        -0.097990
 C         2.528577         1.229737        -0.461662
 C         3.825081         0.758069         0.329863
 C         3.293726        -0.356550         1.228177
 O         1.870808        -0.298498         1.296253
 C         4.015581        -0.708249        -0.034566
 O         3.382475        -1.102802        -1.235430
 C         1.942929        -1.210134        -0.928643
 H        -0.093389         0.926426        -1.318495
 H        -0.451368        -0.504876        -0.186910
 H        -0.165130         1.138873         0.566867
 H         2.700697         0.942185        -1.493788
 H         2.272069         2.192783        -0.240985
 H         4.656932         1.383740         0.635367
 H         3.757443        -0.688479         2.209324
 H         5.062658        -1.208026        -0.009700
 H         1.414476        -1.092585        -1.828716
 H         1.696173        -2.157401        -0.410739
