19
Iteration:  1599
 C         0.045881         0.372454        -0.129149
 C         1.504644         0.049613        -0.212110
 C         2.465788         1.248619        -0.602945
 C         3.818348         0.779543         0.018076
 C         3.369793        -0.005075         1.194747
 O         1.980016        -0.128672         1.199628
 C         4.050665        -0.714315         0.066034
 O         3.311732        -1.640366        -0.748936
 C         1.941079        -1.199980        -1.039636
 H        -0.332237        -0.038676         0.753912
 H        -0.155899         1.492384        -0.180856
 H        -0.496285        -0.047756        -0.996162
 H         2.455950         1.420633        -1.666813
 H         2.009978         2.045695        -0.026117
 H         4.782074         1.367507         0.206347
 H         3.835132         0.197395         2.207194
 H         5.027951        -1.095749         0.022197
 H         1.941148        -0.897894        -2.246497
 H         1.327669        -2.167525        -0.957272
