19
Iteration:  4422
 C         0.144179         0.364266        -0.198350
 C         1.577360        -0.024825        -0.106967
 C         2.144233        -0.033516        -1.526993
 C         3.591319         0.023910        -1.069671
 C         3.571977         0.827780         0.297879
 O         2.211167         1.068332         0.650710
 C         4.051178        -0.554453         0.238308
 O         3.305500        -1.600891         0.845322
 C         1.863328        -1.439824         0.471088
 H        -0.485422        -0.471935        -0.389659
 H        -0.303318         1.031751         0.655887
 H         0.055072         1.049648        -1.169198
 H         1.866575        -0.898328        -2.233740
 H         1.849189         0.869120        -2.016918
 H         4.447904         0.324444        -1.805297
 H         4.151640         1.695481         0.333784
 H         5.158827        -0.785991         0.290557
 H         1.697202        -2.161627        -0.344781
 H         1.397889        -1.708135         1.379049
