19
Iteration:  4317charge 0 multiplicity 1
 C         0.072077         0.307875        -0.294083
 C         1.546089        -0.059590        -0.117621
 C         2.250484        -0.046326        -1.453791
 C         3.722520         0.197173        -1.059797
 C         3.564764         0.850337         0.372059
 O         2.197504         1.008237         0.683097
 C         4.096545        -0.584783         0.194097
 O         3.225273        -1.722261         0.501205
 C         1.813920        -1.291400         0.693431
 H        -0.496167         0.078559         0.732035
 H        -0.026369         1.444410        -0.491142
 H        -0.427267        -0.206457        -1.106609
 H         2.073449        -1.010114        -1.947945
 H         1.874397         0.802539        -2.056089
 H         4.469714         0.514385        -1.844929
 H         4.129000         1.683203         0.676555
 H         5.166750        -0.799823         0.485529
 H         1.189670        -2.216272         0.683517
 H         1.909145        -0.967291         1.788185
