19
Iteration:  4974charge 0 multiplicity 1
 C        -0.040856         0.280396        -0.090285
 C         1.471259        -0.068949        -0.173943
 C         2.373610        -0.107388        -1.518393
 C         3.823302         0.143688        -1.099485
 C         3.614438         0.883773         0.232615
 O         2.239410         0.998504         0.513551
 C         4.076013        -0.551003         0.276427
 O         3.126261        -1.636292         0.579384
 C         1.819582        -1.277197         0.782070
 H        -0.328042         0.809406        -1.092801
 H        -0.566884        -0.651651         0.035754
 H        -0.220983         1.072423         0.780320
 H         2.146950        -1.046611        -2.045257
 H         1.967560         0.784419        -2.130297
 H         4.626837         0.302962        -1.891197
 H         4.368758         1.505381         0.631162
 H         5.155024        -0.706576         0.629283
 H         1.199179        -2.220159         0.684740
 H         1.574952        -0.902867         1.877421
