19
Iteration:  1230charge 0 multiplicity 1
 C        -0.000242         0.359675        -0.069139
 C         1.531508         0.052593        -0.182780
 C         2.459741         1.270459        -0.525515
 C         3.839523         0.786319         0.126411
 C         3.356511        -0.128877         1.249227
 O         1.976581        -0.386719         1.150500
 C         4.039747        -0.679691         0.032916
 O         3.228825        -1.530864        -0.784644
 C         2.048184        -0.952766        -1.278819
 H        -0.169205         0.243280         0.999748
 H        -0.099229         1.464577        -0.386626
 H        -0.619402        -0.342154        -0.622330
 H         2.730014         1.375439        -1.584671
 H         1.959287         2.235917         0.117708
 H         4.642043         1.405578         0.540135
 H         3.728474        -0.336366         2.298518
 H         5.089808        -1.163764         0.170718
 H         2.197129        -0.417024        -2.354306
 H         1.368420        -1.938979        -1.398951
