19
Iteration:   566charge 0 multiplicity 1
 C         0.076156         0.421407        -0.189049
 C         1.550285         0.042661        -0.038268
 C         2.619688         1.215187        -0.184153
 C         3.792295         0.602121         0.630387
 C         3.201025        -0.645370         1.172860
 O         1.788353        -0.612289         1.094205
 C         4.047725        -0.737832        -0.065260
 O         3.431797        -0.690010        -1.357775
 C         2.026430        -0.882796        -1.203649
 H        -0.645663        -0.124533         0.470579
 H        -0.333835         1.498646        -0.020020
 H        -0.219977         0.149575        -1.176371
 H         2.765798         1.462084        -1.254787
 H         2.276090         2.061012         0.286655
 H         4.624994         1.046193         1.247902
 H         3.510033        -1.141029         2.137504
 H         4.993232        -1.261041        -0.066082
 H         1.395181        -0.790967        -2.221413
 H         1.767117        -1.890125        -0.815046
