19
Iteration:   715charge 0 multiplicity 1
 C         0.042762         0.465773        -0.169256
 C         1.516951         0.065472        -0.172606
 C         2.522547         1.315823        -0.128260
 C         3.776476         0.723533         0.513950
 C         3.309664        -0.528181         1.211377
 O         1.909328        -0.654359         1.087102
 C         4.106249        -0.687946        -0.013269
 O         3.364269        -1.137925        -1.145858
 C         1.981539        -0.821926        -1.355514
 H        -0.235357         1.542465        -0.055346
 H        -0.521140         0.053929        -1.143414
 H        -0.409341        -0.130649         0.611008
 H         2.676408         1.700128        -1.164721
 H         2.075020         2.119551         0.583257
 H         4.503171         1.498209         0.851248
 H         3.708303        -0.933505         2.170737
 H         5.063110        -1.150930         0.104550
 H         1.765285        -0.236161        -2.338406
 H         1.343283        -1.838174        -1.463568
