19
Iteration:  1516
 C         0.056421         0.430399        -0.378516
 C         1.524962         0.044046        -0.124543
 C         2.506829         1.194723        -0.511660
 C         3.791097         0.768186         0.056768
 C         3.372812        -0.113698         1.227602
 O         1.899214        -0.094131         1.300756
 C         4.068979        -0.738321        -0.053841
 O         3.345102        -1.436165        -1.012777
 C         1.966199        -1.349853        -0.759661
 H        -0.527271         0.626906         0.647300
 H         0.016531         1.421526        -0.899931
 H        -0.598550        -0.321283        -0.847575
 H         2.506666         1.345091        -1.683055
 H         2.085907         2.120326        -0.027411
 H         4.538455         1.578433         0.147601
 H         3.895632        -0.079420         2.219314
 H         5.133790        -1.070311         0.031662
 H         1.457248        -1.411082        -1.689821
 H         1.554418        -2.204074        -0.119438
