19
Iteration:  3854charge 0 multiplicity 1
 C         0.029884         0.193722        -0.188169
 C         1.507426         0.079409        -0.126148
 C         2.166455         0.150605        -1.505774
 C         3.720564         0.181868        -1.022540
 C         3.661789         0.768542         0.368417
 O         2.315604         1.022192         0.736567
 C         4.122999        -0.704546         0.148191
 O         3.197119        -1.621044         0.760945
 C         1.796874        -1.362814         0.385163
 H        -0.272869        -0.646905        -0.865699
 H        -0.429987        -0.014364         0.744292
 H        -0.381983         1.213574        -0.516195
 H         1.906901        -0.761646        -2.257003
 H         1.859463         1.148985        -1.879581
 H         4.379722         0.490692        -1.823631
 H         4.408597         1.550115         0.762037
 H         5.089555        -0.849820         0.524245
 H         1.485868        -1.967372        -0.595314
 H         1.109137        -1.875890         1.133030
