19
Iteration:   123
 C         0.077065         0.478695        -0.142085
 C         1.556997         0.076635        -0.158214
 C         2.515651         1.240224         0.342613
 C         3.731155         0.506030         0.764518
 C         3.174800        -0.931402         1.097915
 O         1.804540        -0.920944         0.899962
 C         4.022764        -0.660530        -0.086663
 O         3.514468        -0.626886        -1.400358
 C         2.073630        -0.488527        -1.475122
 H        -0.150309         1.299119        -0.690741
 H        -0.528569        -0.307353        -0.612070
 H        -0.246695         0.521610         0.939796
 H         2.630215         2.056853        -0.316133
 H         2.079911         1.669343         1.248625
 H         4.500583         1.017125         1.381673
 H         3.506409        -1.544868         1.936785
 H         5.094487        -1.078892        -0.129443
 H         1.914196         0.252567        -2.264498
 H         1.688468        -1.429987        -1.768514
