19
Iteration:  1958charge 0 multiplicity 1
 C        -0.018483         0.414039        -0.246354
 C         1.519978         0.023403        -0.130066
 C         2.505466         1.017109        -0.814168
 C         3.821564         0.819191        -0.039949
 C         3.434030         0.059546         1.189832
 O         1.985162        -0.085291         1.236768
 C         4.083116        -0.657562        -0.005744
 O         3.285123        -1.516925        -0.797155
 C         1.874148        -1.317499        -0.644703
 H        -0.474111        -0.102639        -1.087880
 H        -0.614851         0.337678         0.679188
 H        -0.047730         1.483258        -0.567607
 H         2.719976         0.704852        -1.805316
 H         2.175980         2.151585        -0.712687
 H         4.651028         1.534192        -0.064808
 H         3.940719         0.281697         2.191897
 H         5.121330        -1.048581         0.098226
 H         1.545794        -1.656486        -1.646062
 H         1.436571        -2.000488         0.042008
