19
Iteration:  3823charge 0 multiplicity 1
 C         0.093924         0.404875        -0.107857
 C         1.526015        -0.087978        -0.216909
 C         2.228986         0.150521        -1.494663
 C         3.743295         0.216067        -1.031543
 C         3.603618         0.881469         0.343555
 O         2.216553         0.804521         0.709045
 C         4.054289        -0.565918         0.186007
 O         3.232839        -1.631939         0.743230
 C         1.796782        -1.473039         0.364114
 H        -0.649791        -0.373503         0.052412
 H         0.071927         1.032043         0.815637
 H        -0.253651         0.936297        -1.069810
 H         2.099915        -0.644494        -2.368576
 H         1.922926         1.151338        -1.852916
 H         4.437515         0.207157        -1.875887
 H         4.208741         1.643496         0.905994
 H         5.044427        -0.812451         0.480813
 H         1.537734        -2.192992        -0.299358
 H         1.252339        -1.643539         1.351783
