19
Iteration:    26
 C         0.003371         0.444586        -0.197149
 C         1.534835         0.090726        -0.068388
 C         2.366510         1.220545         0.571137
 C         3.708577         0.497772         0.748232
 C         3.243938        -0.943784         1.046585
 O         1.777164        -0.975713         0.935907
 C         4.113918        -0.644814        -0.198600
 O         3.523813        -0.825491        -1.474344
 C         2.176276        -0.206047        -1.508571
 H        -0.418436        -0.026218         0.598517
 H        -0.089738         1.537024         0.002469
 H        -0.511099         0.257081        -1.194667
 H         2.428158         2.103578        -0.044571
 H         2.080247         1.602918         1.603273
 H         4.495542         1.133057         1.290714
 H         3.662532        -1.650576         1.810516
 H         5.231464        -1.076345        -0.179003
 H         2.334446         0.697811        -2.088486
 H         1.617046        -0.935276        -2.068656
