19
Iteration:   493
 C        -0.020808         0.480423        -0.149328
 C         1.540632         0.145190        -0.156028
 C         2.459393         1.296040         0.121772
 C         3.757153         0.719593         0.544627
 C         3.323638        -0.662000         1.263138
 O         1.929692        -0.793868         0.976384
 C         4.060151        -0.610401        -0.108179
 O         3.347443        -1.247063        -1.170345
 C         2.108682        -0.611735        -1.462934
 H        -0.292872         1.450492         0.249682
 H        -0.433809         0.581953        -1.125596
 H        -0.613515        -0.452396         0.247371
 H         2.477310         1.961169        -0.794836
 H         1.977005         1.990359         0.953023
 H         4.617273         1.390340         0.797325
 H         3.648515        -0.954448         2.246340
 H         5.142167        -0.871551        -0.235633
 H         2.214798         0.232269        -2.125661
 H         1.501586        -1.432343        -1.896273
