19
Iteration:   442
 C         0.071479         0.285842        -0.103111
 C         1.537169         0.178519        -0.123200
 C         2.482996         1.371161         0.189235
 C         3.763809         0.648174         0.520673
 C         3.252187        -0.570501         1.231641
 O         1.861226        -0.687576         0.969344
 C         3.983272        -0.750200        -0.071773
 O         3.409415        -1.204698        -1.236035
 C         2.101246        -0.508951        -1.559834
 H        -0.245731         1.010541        -0.861329
 H        -0.437612        -0.633375        -0.348151
 H        -0.327383         0.529958         0.913494
 H         2.596509         2.086507        -0.581856
 H         2.186555         1.867141         1.104959
 H         4.647111         1.193843         0.819048
 H         3.557428        -1.022585         2.115625
 H         5.069955        -1.102101         0.059526
 H         2.208870         0.237602        -2.430656
 H         1.522962        -1.403249        -1.684636
