19
Iteration:  4399charge 0 multiplicity 1
 C        -0.002045         0.343390        -0.151612
 C         1.517622        -0.082056        -0.167291
 C         2.292371         0.004953        -1.492688
 C         3.746828         0.186473        -1.087660
 C         3.620536         0.853028         0.233762
 O         2.219793         0.946521         0.593330
 C         4.079875        -0.588390         0.202517
 O         3.249583        -1.578258         0.776833
 C         1.764575        -1.405030         0.579530
 H        -0.704559        -0.459757         0.206646
 H        -0.033456         1.142536         0.651911
 H        -0.439188         0.893641        -1.124555
 H         2.311258        -0.992176        -2.020840
 H         1.870890         0.747016        -2.146422
 H         4.540439         0.405633        -1.876495
 H         4.159438         1.591855         0.790353
 H         5.122399        -0.834071         0.456701
 H         1.389973        -2.315755         0.043713
 H         1.461166        -1.436083         1.582432
