19
Iteration:   302
 C         0.048892         0.319832        -0.200036
 C         1.567548         0.170871        -0.110743
 C         2.510199         1.311904         0.212098
 C         3.737650         0.578792         0.690605
 C         3.275845        -0.718194         1.195026
 O         1.889205        -0.817776         0.960039
 C         3.995359        -0.678030        -0.119149
 O         3.373039        -0.975213        -1.298709
 C         2.043285        -0.464224        -1.449962
 H        -0.204989         1.425714         0.060989
 H        -0.151044         0.139947        -1.305607
 H        -0.466415        -0.407832         0.350085
 H         2.855463         2.049777        -0.600774
 H         2.140821         1.930100         1.033307
 H         4.636928         1.119697         1.089726
 H         3.677742        -1.282835         2.050689
 H         5.067597        -1.079532        -0.091135
 H         1.988896         0.264134        -2.300525
 H         1.526395        -1.384917        -1.637425
