19
Iteration:  2092charge 0 multiplicity 1
 C         0.069482         0.417228        -0.256945
 C         1.580869         0.052000        -0.154994
 C         2.449426         1.128083        -0.868541
 C         3.772872         0.766299        -0.206861
 C         3.365263         0.132765         1.161505
 O         1.973434         0.057031         1.288301
 C         4.073455        -0.703728         0.071989
 O         3.383267        -1.729059        -0.725066
 C         1.855511        -1.385706        -0.635992
 H        -0.345909         0.733316         0.746561
 H        -0.127032         1.277451        -0.870249
 H        -0.446734        -0.446310        -0.544158
 H         2.272991         0.981465        -1.954633
 H         2.063257         2.105049        -0.417898
 H         4.566569         1.499130        -0.225515
 H         3.783079         0.600596         1.989336
 H         5.159832        -0.966170         0.203862
 H         1.381629        -1.690907        -1.551862
 H         1.406151        -1.880866         0.156802
