19
Iteration:    42
 C         0.125522         0.395271        -0.179792
 C         1.580914         0.158392        -0.066577
 C         2.431747         1.296038         0.598607
 C         3.727363         0.554062         0.735064
 C         3.241401        -0.879698         1.122478
 O         1.859005        -1.072942         0.814467
 C         3.928864        -0.652551        -0.147438
 O         3.423388        -0.889150        -1.442561
 C         2.210737        -0.192625        -1.524908
 H        -0.615511        -0.527199         0.063298
 H        -0.285343         1.274756         0.331121
 H        -0.112716         0.477682        -1.235574
 H         2.419544         2.168076        -0.128941
 H         1.908807         1.519942         1.520010
 H         4.600626         0.965707         1.163586
 H         3.548628        -1.448577         1.974658
 H         4.913422        -0.903761        -0.184305
 H         2.206791         0.802732        -2.059282
 H         1.359737        -0.752868        -2.009459
