19
Iteration:  4939charge 0 multiplicity 1
 C         0.106535         0.338925        -0.274859
 C         1.512995        -0.001179        -0.001831
 C         2.250069        -0.259278        -1.416862
 C         3.673393         0.160885        -1.099523
 C         3.568455         0.784738         0.282232
 O         2.189613         1.237147         0.564350
 C         4.067126        -0.594252         0.147288
 O         3.233799        -1.725086         0.596482
 C         1.896799        -1.272473         0.749606
 H         0.013173         1.366181        -0.863743
 H        -0.333032        -0.377159        -0.910401
 H        -0.522497         0.351338         0.627899
 H         2.042498        -1.356232        -1.677320
 H         1.863412         0.391077        -2.280965
 H         4.361267         0.455010        -1.830777
 H         4.261784         1.504623         0.767765
 H         5.029428        -0.663926         0.591754
 H         1.293404        -2.219899         0.373575
 H         1.735866        -1.143685         1.877141
