19
Iteration:  2065charge 0 multiplicity 1
 C         0.013097         0.318830        -0.203611
 C         1.563272        -0.019096        -0.234305
 C         2.464905         1.153142        -0.817504
 C         3.823943         0.831941        -0.180621
 C         3.461662         0.114436         1.116310
 O         2.036946         0.014884         1.243061
 C         4.051083        -0.665033         0.029762
 O         3.204026        -1.680359        -0.431089
 C         1.905038        -1.316134        -0.846050
 H        -0.032012         1.226763         0.399469
 H        -0.507204         0.661456        -1.144914
 H        -0.569641        -0.466881         0.413721
 H         2.473032         1.120103        -1.924880
 H         1.983977         2.080999        -0.542390
 H         4.718472         1.431096        -0.424728
 H         3.972205         0.263076         2.134586
 H         5.082347        -0.997577         0.017469
 H         1.942548        -1.203428        -1.963456
 H         1.103399        -2.139675        -0.447428
