19
Iteration:  4388charge 0 multiplicity 1
 C        -0.015440         0.290669        -0.071109
 C         1.501166        -0.050408        -0.209635
 C         2.336345        -0.091036        -1.589468
 C         3.837295         0.201450        -1.106872
 C         3.616924         0.807319         0.340131
 O         2.237054         0.952230         0.647424
 C         4.094257        -0.538917         0.202400
 O         3.196859        -1.551419         0.669246
 C         1.693633        -1.350319         0.643748
 H        -0.581633        -0.600628         0.299542
 H        -0.163869         1.148550         0.631208
 H        -0.458880         0.570466        -1.142709
 H         2.297497        -1.044256        -2.190101
 H         2.011417         0.734417        -2.207424
 H         4.640001         0.511519        -1.847065
 H         4.256310         1.641238         0.568115
 H         5.153776        -0.747753         0.370870
 H         1.303918        -2.296980         0.229568
 H         1.253429        -1.170710         1.596643
