19
Iteration:  1038charge 0 multiplicity 1
 C         0.070526         0.218150        -0.271079
 C         1.576655         0.192415        -0.145397
 C         2.466469         1.425255        -0.128826
 C         3.774433         0.739397         0.126760
 C         3.375622        -0.240097         1.216409
 O         2.008086        -0.446286         1.158526
 C         3.985761        -0.747161        -0.020389
 O         3.191795        -1.570776        -0.891825
 C         2.026304        -0.769833        -1.271118
 H        -0.280936        -0.418003         0.563735
 H        -0.205058         1.165688        -0.073309
 H        -0.229344        -0.196141        -1.204436
 H         2.502499         1.731779        -1.223204
 H         2.065394         2.082858         0.653641
 H         4.638928         1.400723         0.276679
 H         3.783734        -0.406484         2.208696
 H         5.106991        -1.004582         0.085823
 H         2.336868        -0.085931        -2.111455
 H         1.186461        -1.480035        -1.658096
