19
Iteration:   324
 C         0.059228         0.383289        -0.158784
 C         1.579908         0.115483        -0.166348
 C         2.550998         1.288749         0.118547
 C         3.820829         0.613453         0.706885
 C         3.189775        -0.781080         1.186332
 O         1.809685        -0.769965         0.972513
 C         4.071229        -0.706252        -0.049608
 O         3.407881        -0.815438        -1.358413
 C         2.013518        -0.629110        -1.405018
 H        -0.235723         0.659900         0.944260
 H        -0.385318         1.101260        -0.931674
 H        -0.307725        -0.584557        -0.347112
 H         2.671637         1.824360        -0.893722
 H         2.242732         2.017145         0.846912
 H         4.566117         1.199090         1.299237
 H         3.523782        -1.217089         2.118063
 H         5.133232        -1.152585        -0.034636
 H         1.748437         0.063394        -2.250473
 H         1.551877        -1.614565        -1.520647
