19
Iteration:  2945charge 0 multiplicity 1
 C         0.031649         0.389501        -0.223746
 C         1.493545        -0.017107        -0.179582
 C         2.409934         0.643172        -1.259251
 C         3.805347         0.568545        -0.590102
 C         3.469169         0.536727         0.921935
 O         2.056617         0.643395         0.956484
 C         4.047254        -0.651149         0.110936
 O         3.287722        -1.825523        -0.211572
 C         1.897525        -1.561140         0.109084
 H         0.008134         1.433279        -0.001039
 H        -0.565717         0.183848        -1.182533
 H        -0.668936        -0.102010         0.496439
 H         2.334943         0.095425        -2.265688
 H         2.021463         1.690116        -1.552114
 H         4.630237         1.151927        -1.041757
 H         4.005755         0.996603         1.713892
 H         5.134258        -0.978294         0.200178
 H         1.415523        -2.436837        -0.254299
 H         1.742826        -1.658792         1.167438
