19
Iteration:  1970
 C         0.127466         0.409797        -0.286938
 C         1.546705         0.099626        -0.148871
 C         2.506326         1.073499        -0.799581
 C         3.774739         0.813717        -0.144788
 C         3.389461         0.059278         1.142174
 O         2.009320        -0.130889         1.336672
 C         4.024869        -0.654974         0.019096
 O         3.266384        -1.545082        -0.672943
 C         1.860664        -1.333239        -0.726124
 H        -0.274057        -0.185552        -1.137567
 H        -0.312901        -0.138668         0.543428
 H        -0.171730         1.425696        -0.281276
 H         2.425126         0.888577        -1.852743
 H         2.100557         2.190494        -0.704268
 H         4.632286         1.518611        -0.218630
 H         3.931155         0.232198         2.154048
 H         5.049141        -0.991720         0.031762
 H         1.449699        -1.339112        -1.801769
 H         1.415331        -2.049218        -0.138232
