19
Iteration:  3292charge 0 multiplicity 1
 C         0.064337         0.386988        -0.246909
 C         1.500964        -0.055447        -0.155406
 C         2.340853         0.423697        -1.314634
 C         3.766462         0.472010        -0.823099
 C         3.531034         0.727519         0.676106
 O         2.167591         0.793811         0.845762
 C         4.035875        -0.660274         0.248245
 O         3.255825        -1.825299         0.194421
 C         1.838462        -1.599139         0.185175
 H        -0.578498        -0.436776        -0.081609
 H        -0.160301         0.919517         0.674750
 H        -0.048536         0.985070        -1.204898
 H         2.092908        -0.143805        -2.212558
 H         1.902926         1.434046        -1.523105
 H         4.549158         1.024579        -1.405001
 H         4.020620         1.676923         1.083031
 H         5.098296        -0.765912         0.316651
 H         1.331572        -2.447392        -0.506538
 H         1.505931        -1.721684         1.263578
