19
Iteration:  3623charge 0 multiplicity 1
 C         0.056304         0.269980        -0.175975
 C         1.551532        -0.066750        -0.180356
 C         2.260883         0.345053        -1.451738
 C         3.712493         0.279698        -0.987577
 C         3.631437         0.831856         0.442475
 O         2.266977         0.863301         0.728320
 C         4.050681        -0.636785         0.200383
 O         3.186680        -1.728039         0.660349
 C         1.807457        -1.454690         0.287836
 H        -0.239046         0.616510        -1.225673
 H        -0.458038        -0.697526         0.104548
 H        -0.294071         0.949658         0.604374
 H         1.722266        -0.115710        -2.343747
 H         2.122731         1.388687        -1.581166
 H         4.530499         0.495166        -1.700110
 H         4.183099         1.617313         0.928087
 H         5.091546        -0.939315         0.439261
 H         1.469815        -2.253381        -0.480695
 H         1.191046        -1.670475         1.304469
