19
Iteration:  2189charge 0 multiplicity 1
 C         0.034538         0.327773        -0.197945
 C         1.505539         0.030395        -0.242213
 C         2.455304         1.056500        -0.847371
 C         3.804119         0.805365        -0.249990
 C         3.475363         0.233663         1.086466
 O         2.037353         0.141818         1.206413
 C         4.035215        -0.673652         0.033252
 O         3.231818        -1.780264        -0.411840
 C         1.924552        -1.373438        -0.748761
 H        -0.564094        -0.109535        -1.068366
 H        -0.350245         0.009722         0.778731
 H         0.015757         1.386178        -0.292277
 H         2.456704         1.086598        -1.834871
 H         2.123187         1.986049        -0.319663
 H         4.663271         1.459207        -0.296205
 H         3.960149         0.627700         1.988408
 H         5.116712        -1.006541         0.167741
 H         1.600687        -1.543734        -1.759975
 H         1.273785        -2.211947        -0.205947
