19
Iteration:   342
 C         0.067715         0.434046        -0.071815
 C         1.550252         0.091025        -0.114514
 C         2.573888         1.339426         0.058368
 C         3.681613         0.559769         0.683364
 C         3.143549        -0.732538         1.149300
 O         1.755415        -0.790779         1.034107
 C         4.001852        -0.701313        -0.146087
 O         3.604303        -0.765014        -1.434936
 C         2.090698        -0.708457        -1.324071
 H        -0.407124         0.232570         0.848688
 H        -0.004692         1.478883        -0.161102
 H        -0.680625        -0.072771        -0.825376
 H         2.862326         1.686808        -0.867347
 H         2.133243         2.100873         0.702928
 H         4.524712         1.123611         1.183196
 H         3.570279        -1.371156         2.002857
 H         4.983326        -1.134419         0.041127
 H         1.778162        -0.503970        -2.372235
 H         1.589267        -1.683412        -1.115824
