19
Iteration:   708charge 0 multiplicity 1
 C         0.045961         0.396540        -0.174155
 C         1.560770         0.110182        -0.174359
 C         2.480923         1.314421        -0.082637
 C         3.800058         0.733252         0.480792
 C         3.297513        -0.463687         1.240748
 O         1.916546        -0.636852         1.054653
 C         4.101532        -0.730780        -0.010432
 O         3.368851        -1.197219        -1.137402
 C         1.952483        -0.749013        -1.378346
 H        -0.276303         1.412549        -0.120101
 H        -0.491582        -0.141181        -0.999532
 H        -0.418783        -0.042691         0.716926
 H         2.577457         1.771322        -1.115283
 H         2.021090         2.075704         0.545203
 H         4.596203         1.342820         0.884607
 H         3.640583        -0.992979         2.066445
 H         5.079404        -1.296621         0.160430
 H         1.898865        -0.192943        -2.302478
 H         1.356471        -1.581639        -1.481026
