19
Iteration:  2617charge 0 multiplicity 1
 C        -0.031555         0.304498        -0.144210
 C         1.516918         0.053494        -0.223289
 C         2.394828         0.963216        -1.102215
 C         3.785896         0.655607        -0.594776
 C         3.484243         0.410631         0.913190
 O         2.128180         0.338375         1.110352
 C         4.003615        -0.736518         0.112925
 O         3.251391        -1.805094         0.005908
 C         1.943516        -1.427305        -0.474883
 H        -0.652343        -0.462887        -0.548915
 H        -0.298899         0.500994         0.885786
 H        -0.101888         1.188521        -0.850640
 H         2.224594         0.778395        -2.090391
 H         2.054202         2.079435        -1.040155
 H         4.686629         1.098164        -0.987557
 H         3.949542         0.782361         1.813995
 H         5.100280        -0.935946         0.314065
 H         1.847818        -1.929278        -1.536286
 H         1.368060        -1.961523         0.222681
