19
Iteration:   360
 C         0.084011         0.564658        -0.086952
 C         1.515601         0.112468        -0.120462
 C         2.486723         1.201421         0.032087
 C         3.750224         0.585866         0.665681
 C         3.199128        -0.839452         1.129083
 O         1.748635        -0.724951         1.054469
 C         4.086898        -0.626353        -0.049621
 O         3.508210        -0.706261        -1.442332
 C         2.141394        -0.879164        -1.338336
 H        -0.495965        -0.269768         0.407172
 H        -0.056478         1.519323         0.517485
 H        -0.354316         0.649757        -1.121661
 H         2.745154         1.737084        -0.976385
 H         1.947402         1.975215         0.726052
 H         4.413713         1.124715         1.265459
 H         3.383471        -1.344008         2.060849
 H         5.042716        -1.054060        -0.126617
 H         1.650784        -0.548228        -2.227384
 H         1.865340        -1.974009        -1.257337
