19
Iteration:  1204charge 0 multiplicity 1
 C         0.094468         0.376003        -0.191997
 C         1.582307         0.110943        -0.153527
 C         2.475729         1.330412        -0.458221
 C         3.813885         0.788879         0.196638
 C         3.330802        -0.220587         1.268298
 O         1.872671        -0.354685         1.178976
 C         4.059027        -0.719503        -0.002555
 O         3.342611        -1.447197        -0.997913
 C         1.925340        -1.072398        -1.068546
 H        -0.079086         0.852710         0.773287
 H        -0.278967         0.891376        -1.059426
 H        -0.401482        -0.590188         0.023454
 H         2.712624         1.378734        -1.531912
 H         2.018814         2.116944         0.021147
 H         4.766984         1.342019         0.326122
 H         3.661528        -0.314066         2.268294
 H         5.050149        -1.023167         0.046865
 H         1.803997        -0.613192        -2.080340
 H         1.337545        -1.993202        -0.907750
