19
Iteration:  1883
 C        -0.013953         0.292397        -0.279468
 C         1.511060        -0.000339        -0.140167
 C         2.541891         1.148309        -0.696530
 C         3.846599         0.837002        -0.040167
 C         3.443507         0.021596         1.190967
 O         2.050791        -0.002748         1.242190
 C         4.071449        -0.675355        -0.065766
 O         3.203155        -1.569574        -0.654979
 C         1.859103        -1.257972        -0.804452
 H        -0.725315        -0.203333         0.415045
 H        -0.206014         1.357016        -0.310932
 H        -0.252072        -0.055258        -1.245316
 H         2.628224         0.965367        -1.731540
 H         2.226959         2.159280        -0.351301
 H         4.651932         1.554188        -0.142059
 H         3.900081        -0.094476         2.223332
 H         5.124910        -1.077230        -0.080967
 H         1.591331        -1.416056        -1.954546
 H         1.299327        -2.067233        -0.316578
