19
Iteration:  4403charge 0 multiplicity 1
 C         0.010934         0.370303        -0.174488
 C         1.503370        -0.087584        -0.138148
 C         2.292761         0.009993        -1.473361
 C         3.699829         0.184949        -1.081406
 C         3.614125         0.884057         0.226956
 O         2.222798         0.946312         0.573754
 C         4.066473        -0.615519         0.201573
 O         3.257828        -1.591830         0.800416
 C         1.827641        -1.425547         0.553341
 H        -0.670804        -0.393493         0.052470
 H         0.020964         1.099221         0.651044
 H        -0.351251         0.799843        -1.034407
 H         2.134817        -0.982045        -2.001950
 H         1.878238         0.779220        -2.138469
 H         4.475262         0.381617        -1.829940
 H         4.140343         1.633675         0.800313
 H         5.104478        -0.868651         0.493912
 H         1.425466        -2.201214        -0.063932
 H         1.397434        -1.385286         1.595692
