19
Iteration:  1466charge 0 multiplicity 1
 C         0.021087         0.333338        -0.068740
 C         1.558196         0.065139        -0.180656
 C         2.520673         1.168038        -0.644486
 C         3.780129         0.802768         0.086423
 C         3.359118        -0.024248         1.249215
 O         2.002663        -0.213166         1.161939
 C         4.091262        -0.693183         0.024935
 O         3.246172        -1.593751        -0.643696
 C         1.948106        -1.066984        -1.259088
 H        -0.295402         1.107962         0.559832
 H        -0.394371         0.514990        -1.019761
 H        -0.490532        -0.500446         0.382095
 H         2.465389         1.227238        -1.672618
 H         2.094394         2.043225        -0.142264
 H         4.636475         1.391317         0.196905
 H         3.804216        -0.003591         2.218027
 H         5.160287        -1.067805         0.194280
 H         1.856522        -0.630571        -2.300897
 H         1.258133        -1.848604        -1.330312
