19
Iteration:  4486
 C         0.049529         0.281159        -0.099717
 C         1.579830        -0.050987        -0.165352
 C         2.311446        -0.043629        -1.590778
 C         3.703128         0.113201        -1.166356
 C         3.566396         0.844234         0.298236
 O         2.224056         1.007714         0.569574
 C         3.957168        -0.589372         0.214022
 O         3.247403        -1.630572         0.823855
 C         1.857386        -1.256583         0.600889
 H        -0.375656         0.334044        -1.087509
 H        -0.521092        -0.548870         0.321583
 H         0.012602         1.280442         0.480509
 H         2.175856        -0.992089        -2.117249
 H         1.875554         0.776890        -2.111372
 H         4.612823         0.156973        -1.870273
 H         4.150277         1.636039         0.658367
 H         5.042285        -0.689865         0.488175
 H         1.184008        -2.076021         0.186087
 H         1.427610        -1.104680         1.551028
