19
Iteration:  2937charge 0 multiplicity 1
 C        -0.011068         0.401315        -0.196292
 C         1.502775        -0.008840        -0.196286
 C         2.459199         0.584245        -1.295873
 C         3.761494         0.617135        -0.611153
 C         3.445009         0.525504         0.920883
 O         2.033448         0.641396         1.015605
 C         4.047277        -0.701455         0.091536
 O         3.302127        -1.813111        -0.232775
 C         1.907356        -1.533835         0.092017
 H         0.003494         1.505141        -0.293030
 H        -0.471108        -0.073137        -1.126014
 H        -0.471451         0.099498         0.697946
 H         2.598862         0.053475        -2.184186
 H         2.090570         1.708892        -1.548460
 H         4.625427         1.048219        -1.053550
 H         3.932322         0.844090         1.817448
 H         5.102711        -0.851357         0.337336
 H         1.299352        -2.324017        -0.272276
 H         1.992421        -1.509128         1.309635
