19
Iteration:  2868
 C         0.116598         0.312831        -0.177271
 C         1.561793         0.073817        -0.168826
 C         2.363131         0.793799        -1.259671
 C         3.731800         0.602419        -0.654764
 C         3.453710         0.478641         0.824620
 O         2.046872         0.513721         1.055143
 C         4.078375        -0.712148         0.127333
 O         3.266915        -1.845215         0.048815
 C         1.883736        -1.478924        -0.175862
 H        -0.277266        -0.071807        -1.101807
 H        -0.363590        -0.232910         0.653336
 H        -0.292509         1.394970        -0.129755
 H         2.188956         0.358617        -2.336208
 H         2.213159         1.914209        -1.382615
 H         4.559966         1.260495        -1.056705
 H         4.119404         1.078592         1.492510
 H         5.150843        -0.958862         0.215932
 H         1.596621        -2.037490        -1.077589
 H         1.234132        -1.888682         0.757383
