19
Iteration:  3581
 C         0.018014         0.276332        -0.134856
 C         1.517434         0.026734        -0.158539
 C         2.289197         0.145434        -1.472589
 C         3.752987         0.350846        -0.915262
 C         3.605593         0.754980         0.562756
 O         2.234740         0.898010         0.762439
 C         4.109954        -0.593494         0.177759
 O         3.227263        -1.723168         0.391450
 C         1.741678        -1.405881         0.373362
 H        -0.499618        -0.153747        -1.060493
 H        -0.496777        -0.055145         0.742539
 H        -0.147876         1.389191        -0.151091
 H         2.475550        -0.706358        -2.186681
 H         1.935215         0.941380        -2.056580
 H         4.515785         0.695997        -1.644661
 H         4.082266         1.398249         1.261000
 H         5.184007        -0.865511         0.387878
 H         1.269298        -2.139302        -0.407793
 H         1.297674        -1.582297         1.345963
