19
Iteration:  1490charge 0 multiplicity 1
 C         0.086080         0.329136        -0.214979
 C         1.593526         0.121051        -0.198488
 C         2.527543         1.321490        -0.573699
 C         3.804340         0.853693         0.045789
 C         3.352076        -0.098828         1.230431
 O         1.937856        -0.228921         1.164231
 C         4.005041        -0.724659         0.017424
 O         3.319098        -1.566232        -0.817440
 C         1.921389        -1.211576        -0.926887
 H        -0.094855         0.660043         0.745523
 H        -0.347641         1.080099        -0.898190
 H        -0.540519        -0.566649        -0.159470
 H         2.406474         1.268106        -1.682812
 H         2.078235         2.213193        -0.187434
 H         4.703704         1.480651         0.129911
 H         3.788296        -0.147581         2.207883
 H         5.032518        -0.968099         0.153587
 H         1.541942        -1.085579        -1.971388
 H         1.261930        -1.952036        -0.580217
