19
Iteration:  4548charge 0 multiplicity 1
 C         0.161744         0.317417        -0.254326
 C         1.582435        -0.057971        -0.134726
 C         2.299398        -0.261779        -1.507625
 C         3.697607         0.213111        -1.083108
 C         3.559256         0.859101         0.307859
 O         2.195113         1.045025         0.598702
 C         4.033645        -0.611840         0.157717
 O         3.132391        -1.642220         0.604867
 C         1.862098        -1.204381         0.801219
 H        -0.142194         1.458367        -0.269866
 H        -0.351683        -0.305341        -0.957832
 H        -0.343362         0.017250         0.681337
 H         2.329605        -1.330017        -1.702502
 H         1.822670         0.344510        -2.408645
 H         4.298506         0.613237        -1.942954
 H         4.154988         1.716711         0.441453
 H         5.042026        -0.877179         0.507179
 H         1.265611        -2.100550         0.940859
 H         1.751920        -0.642822         1.887689
