19
Iteration:  2805charge 0 multiplicity 1
 C         0.038890         0.284248        -0.131054
 C         1.533468         0.091643        -0.184560
 C         2.424379         0.725832        -1.306174
 C         3.711037         0.588736        -0.629193
 C         3.541330         0.498786         0.889901
 O         2.085750         0.470180         1.158330
 C         4.015364        -0.615014         0.194077
 O         3.232597        -1.798679         0.000195
 C         1.900869        -1.459212        -0.343634
 H        -0.458166        -0.563231         0.322594
 H        -0.068568         1.321803         0.322668
 H        -0.312670         0.357238        -1.153603
 H         2.277302         0.167339        -2.115778
 H         2.133471         1.802547        -1.621243
 H         4.606100         0.936097        -1.213357
 H         4.116576         0.937316         1.737710
 H         5.097132        -0.873849         0.134026
 H         1.675087        -1.876481        -1.348512
 H         1.274766        -1.970427         0.415973
