19
Iteration:  2682
 C         0.018908         0.352769        -0.173823
 C         1.550606         0.048907        -0.206711
 C         2.412065         0.803649        -1.200301
 C         3.837385         0.643588        -0.552446
 C         3.383442         0.421014         0.921860
 O         2.019801         0.401107         1.114298
 C         4.091793        -0.652764         0.118191
 O         3.319432        -1.832024        -0.180230
 C         1.860418        -1.463181        -0.258808
 H        -0.286482         1.116322        -0.899062
 H        -0.592440        -0.555021        -0.245594
 H         0.001577         0.819743         0.950122
 H         2.398021         0.443063        -2.195236
 H         2.166362         1.969021        -1.122551
 H         4.637240         1.320866        -0.758581
 H         3.873713         1.055664         1.616205
 H         5.138099        -0.975584         0.273935
 H         1.443439        -1.916646        -1.091411
 H         1.357693        -1.877649         0.625637
