19
Iteration:  1930
 C         0.086438         0.432554        -0.151236
 C         1.524093         0.003191        -0.188403
 C         2.526936         1.007423        -0.811510
 C         3.830684         0.779984        -0.019367
 C         3.305934         0.006104         1.175634
 O         1.890374         0.149951         1.278206
 C         3.984022        -0.730229         0.025499
 O         3.352992        -1.432203        -0.964893
 C         1.969506        -1.467936        -0.655174
 H        -0.585425        -0.459784        -0.394014
 H        -0.091367         0.677870         0.887657
 H        -0.179971         1.288273        -0.776214
 H         2.773518         0.725931        -1.891244
 H         2.198304         1.929092        -0.546266
 H         4.687172         1.496156         0.030379
 H         3.887296         0.095685         2.096477
 H         4.905324        -1.124902         0.336782
 H         1.514290        -1.909215        -1.605891
 H         1.680018        -2.214733         0.200558
