19
Iteration:  2920
 C         0.092634         0.323711        -0.228924
 C         1.554680         0.034007        -0.137755
 C         2.462521         0.518636        -1.320276
 C         3.824103         0.662080        -0.586971
 C         3.400082         0.499045         0.865636
 O         2.037776         0.633264         1.095292
 C         4.040698        -0.667592         0.154064
 O         3.230206        -1.787241        -0.305935
 C         1.879681        -1.457116         0.090441
 H        -0.122526         1.291307        -0.741994
 H        -0.573008        -0.441434        -0.515399
 H        -0.341158         0.471548         0.844471
 H         2.370559        -0.281952        -2.168172
 H         2.111296         1.347000        -1.800151
 H         4.547381         1.460378        -0.861266
 H         4.118481         1.001881         1.571552
 H         4.990647        -1.035886         0.489293
 H         1.297388        -2.145351        -0.636122
 H         1.680138        -1.789379         1.025079
