19
Iteration:  1269charge 0 multiplicity 1
 C         0.130258         0.320593        -0.212949
 C         1.616756         0.100689        -0.182944
 C         2.401852         1.445441        -0.371094
 C         3.778762         0.789099         0.047545
 C         3.387112        -0.114636         1.206068
 O         1.958810        -0.326029         1.173453
 C         4.020677        -0.764510        -0.023846
 O         3.240627        -1.622735        -0.754930
 C         2.000414        -1.041836        -1.140589
 H        -0.391418        -0.676481         0.034886
 H        -0.271645         1.118653         0.403137
 H        -0.367394         0.581269        -1.193326
 H         2.208850         1.789093        -1.437976
 H         1.988459         2.185969         0.355104
 H         4.751159         1.332853         0.158163
 H         3.874287        -0.180912         2.140857
 H         5.008386        -1.074833         0.010025
 H         2.126643        -0.587936        -2.101876
 H         1.269560        -1.789470        -1.066254
