19
Iteration:   365
 C         0.091991         0.572293        -0.106673
 C         1.510811         0.089034        -0.131032
 C         2.497168         1.174094         0.034884
 C         3.757972         0.584792         0.675272
 C         3.207958        -0.799459         1.126231
 O         1.759766        -0.721910         1.057500
 C         4.091502        -0.616774        -0.089175
 O         3.479413        -0.688984        -1.394561
 C         2.117577        -0.893611        -1.342060
 H        -0.578260        -0.245681         0.133057
 H        -0.085329         1.336437         0.623077
 H        -0.293323         0.855253        -1.110592
 H         2.746088         1.665344        -0.845113
 H         2.004034         1.810433         0.719167
 H         4.431597         1.204333         1.342737
 H         3.500106        -1.348903         2.054174
 H         5.094100        -1.140317        -0.124407
 H         1.724362        -0.618318        -2.375923
 H         1.747794        -1.916957        -1.191913
