19
Iteration:  2713charge 0 multiplicity 1
 C         0.038798         0.330365        -0.251234
 C         1.580160        -0.046561        -0.119910
 C         2.407119         0.646041        -1.180011
 C         3.853941         0.733741        -0.491198
 C         3.460823         0.439030         0.996393
 O         2.079741         0.543240         1.101608
 C         4.019070        -0.606548         0.144869
 O         3.233783        -1.712419        -0.401399
 C         1.804772        -1.585422        -0.134252
 H        -0.007557         1.418303        -0.255621
 H        -0.332203        -0.201023        -1.101720
 H        -0.496637         0.093652         0.818313
 H         2.547511         0.207858        -2.229310
 H         2.086284         1.645790        -1.463251
 H         4.767695         1.196292        -0.781732
 H         3.974579         0.885852         1.811055
 H         5.067659        -0.958648         0.307532
 H         1.264067        -2.015748        -0.934133
 H         1.553964        -2.127603         0.920725
