19
Iteration:  3531
 C        -0.006259         0.355780        -0.296355
 C         1.462165        -0.001418        -0.073392
 C         2.324934         0.113583        -1.397813
 C         3.744344         0.403839        -0.859897
 C         3.558988         0.671042         0.625873
 O         2.155724         0.935560         0.804340
 C         4.100091        -0.650065         0.188911
 O         3.252273        -1.769755         0.172204
 C         1.896827        -1.387153         0.456916
 H        -0.734104        -0.418974        -0.283344
 H        -0.269855         1.145190         0.432404
 H        -0.088855         0.882136        -1.279850
 H         2.256902        -0.742318        -2.031598
 H         1.832998         0.966161        -2.022205
 H         4.457686         0.953518        -1.463487
 H         4.142851         1.446070         1.060766
 H         5.144870        -1.010157         0.308463
 H         1.280824        -2.173149         0.116723
 H         1.898530        -1.394590         1.685673
