19
Iteration:  4612charge 0 multiplicity 1
 C         0.078382         0.238852        -0.081652
 C         1.534007        -0.024392        -0.128673
 C         2.178361        -0.109627        -1.567350
 C         3.645846         0.031585        -1.143628
 C         3.690149         0.897454         0.224532
 O         2.259660         1.086286         0.488210
 C         4.050018        -0.571357         0.260464
 O         3.189807        -1.525436         0.937490
 C         1.854653        -1.365838         0.557986
 H        -0.037475         1.201924         0.570832
 H        -0.282379         0.637006        -1.057519
 H        -0.471492        -0.614488         0.235929
 H         2.019260        -1.049048        -2.079573
 H         1.918683         0.642117        -2.368272
 H         4.560046         0.010830        -1.777672
 H         4.189770         1.795623         0.465226
 H         5.082672        -0.892689         0.510184
 H         1.640292        -2.046184        -0.262229
 H         1.236127        -1.429051         1.383955
