19
Iteration:  4652
 C         0.091181         0.327678        -0.095241
 C         1.511665        -0.106639        -0.219361
 C         2.183299        -0.132146        -1.586873
 C         3.713658         0.021338        -1.132840
 C         3.627690         0.874682         0.142905
 O         2.257291         0.906367         0.600790
 C         4.091317        -0.523266         0.240331
 O         3.204608        -1.395553         0.961397
 C         1.836427        -1.326143         0.592947
 H        -0.297304         0.524580         0.838297
 H         0.081030         1.342758        -0.644006
 H        -0.620525        -0.377086        -0.596170
 H         1.864269        -1.067218        -2.123516
 H         1.848446         0.726062        -2.104903
 H         4.431204         0.127448        -1.915232
 H         4.204979         1.830571         0.277409
 H         5.104382        -0.886575         0.234780
 H         1.542238        -2.266840         0.050934
 H         1.215611        -1.366077         1.579408
