19
Iteration:  3733
 C         0.015406         0.244095        -0.246921
 C         1.533945        -0.087227        -0.153591
 C         2.344614         0.187246        -1.521672
 C         3.756608         0.271445        -1.010603
 C         3.578116         0.727361         0.656367
 O         2.177407         1.058218         0.724784
 C         3.973164        -0.635440         0.188033
 O         3.206667        -1.825228         0.261106
 C         1.895441        -1.289139         0.644750
 H        -0.320723         0.899106         0.648814
 H        -0.316262         0.628660        -1.181200
 H        -0.552787        -0.767873        -0.135927
 H         2.208361        -0.674381        -2.351444
 H         2.075668         1.207381        -1.880717
 H         4.625550         0.644942        -1.529631
 H         4.205919         1.422245         1.187887
 H         5.030871        -0.986961         0.212425
 H         1.138429        -1.905408         0.731813
 H         2.013489        -0.840412         1.720373
