19
Iteration:  2089
 C         0.076516         0.412218        -0.233715
 C         1.572612         0.061758        -0.135583
 C         2.438476         1.124130        -0.860201
 C         3.781336         0.766019        -0.204405
 C         3.365655         0.124760         1.154142
 O         1.980585         0.048103         1.239017
 C         4.072094        -0.691212         0.058667
 O         3.377474        -1.748037        -0.683367
 C         1.858014        -1.368582        -0.667303
 H        -0.417999         0.832769         0.716960
 H        -0.134250         1.234816        -0.945108
 H        -0.458160        -0.499384        -0.447616
 H         2.264613         1.090159        -1.865517
 H         2.132685         2.154590        -0.458559
 H         4.536062         1.573831        -0.232469
 H         3.806056         0.564613         2.056926
 H         5.069875        -0.947655         0.206703
 H         1.468238        -1.617974        -1.655248
 H         1.451089        -1.993974         0.259391
