19
Iteration:  4384charge 0 multiplicity 1
 C         0.000479         0.288039        -0.067798
 C         1.481574        -0.053598        -0.188407
 C         2.379451        -0.121068        -1.608376
 C         3.807658         0.203851        -1.105812
 C         3.607743         0.838000         0.361090
 O         2.249885         0.950700         0.647533
 C         4.091247        -0.561348         0.200193
 O         3.175485        -1.557865         0.635109
 C         1.733389        -1.316058         0.643086
 H        -0.572423        -0.704775         0.291935
 H        -0.140973         1.098634         0.614731
 H        -0.473833         0.415450        -1.082253
 H         2.102640        -1.018139        -2.137257
 H         2.062120         0.748660        -2.274602
 H         4.591530         0.520389        -1.713479
 H         4.258195         1.742909         0.599290
 H         5.098692        -0.822595         0.477591
 H         1.242980        -2.254013         0.158345
 H         1.233456        -0.962002         1.619210
