19
Iteration:  4358charge 0 multiplicity 1
 C         0.068463         0.233482        -0.156138
 C         1.521768         0.030081        -0.149435
 C         2.291815        -0.075614        -1.428562
 C         3.746099         0.193734        -1.027406
 C         3.572742         0.838335         0.349846
 O         2.188662         1.167682         0.574939
 C         4.027781        -0.611073         0.278967
 O         3.239880        -1.773084         0.476401
 C         1.823381        -1.300058         0.661567
 H        -0.404720        -0.535072         0.296422
 H        -0.163122         1.199627         0.346673
 H        -0.313041         0.144039        -1.111491
 H         2.155680        -1.159872        -1.838792
 H         1.927612         0.568644        -2.209239
 H         4.590348         0.322658        -1.794051
 H         4.273883         1.554225         0.638631
 H         5.131082        -0.738649         0.444953
 H         1.236871        -2.069999         0.260090
 H         1.507205        -0.919304         1.678257
