19
Iteration:   689charge 0 multiplicity 1
 C         0.086694         0.233008        -0.157482
 C         1.575915         0.156356        -0.142333
 C         2.539374         1.466180         0.013296
 C         3.749533         0.686622         0.383417
 C         3.253256        -0.486779         1.244108
 O         1.863943        -0.597360         1.035455
 C         3.992366        -0.737700        -0.063064
 O         3.310620        -1.346181        -1.146085
 C         2.150842        -0.641705        -1.367191
 H        -0.360754         1.188404        -0.537153
 H        -0.345083        -0.572514        -0.617054
 H        -0.363882         0.094275         0.891827
 H         2.557597         2.029138        -0.885216
 H         2.243089         2.054420         0.833044
 H         4.621097         1.280451         0.576875
 H         3.539175        -0.503139         2.329425
 H         5.083890        -0.948560         0.013293
 H         2.118327         0.068533        -2.226401
 H         1.353496        -1.374358        -1.689784
