19
Iteration:  4644charge 0 multiplicity 1
 C         0.039845         0.321220        -0.112887
 C         1.477247        -0.090169        -0.234608
 C         2.212696        -0.109184        -1.549925
 C         3.714645         0.037472        -1.161353
 C         3.651622         0.881394         0.130856
 O         2.245081         0.871449         0.608090
 C         4.140909        -0.577792         0.161959
 O         3.167879        -1.373022         0.990702
 C         1.828578        -1.306958         0.611430
 H         0.058332         0.480883         1.050243
 H        -0.093144         1.209088        -0.820353
 H        -0.767897        -0.316568        -0.301144
 H         2.105462        -1.025873        -2.092022
 H         2.029512         0.763984        -2.173233
 H         4.553281         0.127576        -1.906445
 H         4.106997         1.801326         0.332418
 H         5.176029        -0.765559         0.542188
 H         1.571166        -2.313483         0.019917
 H         1.288595        -1.421163         1.513055
