19
Iteration:   606charge 0 multiplicity 1
 C         0.070327         0.465550        -0.139953
 C         1.524463         0.082801        -0.149127
 C         2.466464         1.322732        -0.000159
 C         3.738425         0.661452         0.575893
 C         3.280597        -0.550717         1.191412
 O         1.856687        -0.617713         1.017800
 C         4.083298        -0.666385        -0.076008
 O         3.486322        -1.144440        -1.279994
 C         1.959440        -0.838420        -1.340360
 H        -0.669193        -0.344975        -0.376288
 H        -0.302735         0.769798         0.908677
 H         0.133282         1.333874        -0.779829
 H         2.634386         1.852097        -0.959852
 H         1.933898         2.075191         0.727370
 H         4.473382         1.293655         1.064158
 H         3.668812        -1.092100         2.129787
 H         5.094124        -0.920699         0.012213
 H         1.879735        -0.297017        -2.226418
 H         1.608158        -1.861464        -1.203834
