19
Iteration:  1857charge 0 multiplicity 1
 C         0.130303         0.401954        -0.211885
 C         1.585732         0.058113        -0.204026
 C         2.397849         1.293350        -0.679503
 C         3.715220         0.821804        -0.180056
 C         3.399300         0.104120         1.150937
 O         2.036650        -0.177481         1.278361
 C         4.009862        -0.764497         0.041143
 O         3.249768        -1.742938        -0.565741
 C         1.971861        -1.205004        -0.945487
 H        -0.189707         0.379896         0.824907
 H        -0.168149         1.374732        -0.690732
 H        -0.371217        -0.443689        -0.822971
 H         2.230859         1.272204        -1.777948
 H         2.048218         2.228199        -0.076099
 H         4.564932         1.521203        -0.206464
 H         3.939457         0.361895         2.016070
 H         5.032918        -1.066822         0.165517
 H         1.989513        -1.157457        -2.024872
 H         1.237287        -1.923974        -0.589639
