19
Iteration:  1437charge 0 multiplicity 1
 C         0.065224         0.332090        -0.103975
 C         1.598662         0.118999        -0.202087
 C         2.472209         1.394089        -0.535603
 C         3.719773         0.785726        -0.043659
 C         3.327251        -0.053022         1.166790
 O         1.964384        -0.297743         1.178458
 C         4.023103        -0.740040        -0.004675
 O         3.267256        -1.691656        -0.626458
 C         2.078462        -1.053027        -1.123055
 H        -0.244856         1.424997        -0.206125
 H        -0.472245        -0.259465        -0.981462
 H        -0.381934        -0.125142         0.843354
 H         2.314306         1.810275        -1.670324
 H         2.103602         2.085290         0.203161
 H         4.705516         1.272019        -0.066764
 H         3.811097        -0.011423         2.109927
 H         5.039875        -0.994198         0.176338
 H         2.170555        -0.616082        -2.117251
 H         1.249259        -1.838573        -1.099520
