19
Iteration:  1355
 C        -0.010945         0.457925        -0.122956
 C         1.561791        -0.045496        -0.222267
 C         2.602509         1.137241        -0.599171
 C         3.780045         0.763943         0.173067
 C         3.289676        -0.214388         1.257564
 O         1.905884        -0.082932         1.239569
 C         4.052959        -0.695215         0.058983
 O         3.372764        -1.240617        -1.123816
 C         1.941048        -1.378803        -0.896767
 H        -0.384379         0.724490        -1.160291
 H        -0.619806        -0.323155         0.239778
 H         0.100370         1.346246         0.503490
 H         2.747562         1.033333        -1.684184
 H         2.133370         2.204538        -0.514424
 H         4.504139         1.569536         0.464501
 H         3.734668        -0.310551         2.266355
 H         5.030680        -1.088569         0.270731
 H         1.399760        -1.669446        -1.873484
 H         1.708180        -2.256412        -0.291508
