19
Iteration:    15charge 0 multiplicity 1
 C         0.007076         0.469968        -0.144369
 C         1.508947         0.087362        -0.089406
 C         2.402125         1.175007         0.472656
 C         3.714179         0.447722         0.784743
 C         3.241756        -0.976508         0.976635
 O         1.803512        -0.902296         0.905541
 C         4.108165        -0.632568        -0.176634
 O         3.560536        -0.752785        -1.456405
 C         2.150874        -0.265579        -1.439848
 H        -0.506615         0.232325         0.687182
 H        -0.119157         1.556366        -0.360205
 H        -0.490675        -0.133013        -0.964363
 H         2.440412         2.062007        -0.124098
 H         1.857394         1.345208         1.441985
 H         4.428088         0.817833         1.584101
 H         3.511569        -1.569413         1.884115
 H         5.251301        -0.942792        -0.177783
 H         2.097117         0.705395        -1.914692
 H         1.530029        -0.920247        -2.016017
