19
Iteration:  3314charge 0 multiplicity 1
 C         0.075821         0.359652        -0.273122
 C         1.556216        -0.012958        -0.103225
 C         2.391694         0.300341        -1.448686
 C         3.753210         0.468191        -0.819691
 C         3.499796         0.704321         0.704104
 O         2.105109         0.787447         0.975156
 C         4.069821        -0.626540         0.116955
 O         3.226049        -1.785808         0.101034
 C         1.839498        -1.482453         0.314689
 H        -0.615248        -0.335624        -0.689388
 H        -0.457688         0.519568         0.691532
 H         0.125758         1.308934        -0.876307
 H         2.326865        -0.505461        -2.182375
 H         1.918894         1.194659        -1.876541
 H         4.528257         1.046885        -1.393148
 H         4.102356         1.186302         1.507628
 H         5.080919        -0.735104         0.500671
 H         1.214400        -2.258252        -0.318583
 H         1.666262        -1.604318         1.404116
