19
Iteration:    31charge 0 multiplicity 1
 C         0.023537         0.436374        -0.223522
 C         1.559082         0.112828        -0.056858
 C         2.364261         1.251076         0.615415
 C         3.715078         0.544483         0.741264
 C         3.242269        -0.918923         1.103282
 O         1.782834        -1.037932         0.917193
 C         4.076893        -0.658546        -0.206216
 O         3.481107        -0.849130        -1.478262
 C         2.201134        -0.185747        -1.533100
 H        -0.451344        -0.281069         0.638105
 H        -0.064703         1.458520         0.149630
 H        -0.361157         0.381770        -1.224723
 H         2.499215         2.156021        -0.063264
 H         2.146563         1.676219         1.585961
 H         4.525154         1.125894         1.096793
 H         3.639578        -1.631588         1.785843
 H         5.016584        -1.043498        -0.144506
 H         2.399485         0.704018        -2.198035
 H         1.653647        -1.000813        -2.096706
