19
Iteration:  2764
 C         0.037435         0.274538        -0.253072
 C         1.544718        -0.041732        -0.175043
 C         2.443259         0.735973        -1.157288
 C         3.854720         0.668436        -0.577597
 C         3.478621         0.503389         0.954260
 O         2.071522         0.543541         1.080371
 C         4.020794        -0.692681         0.109380
 O         3.230286        -1.717871        -0.264785
 C         1.815441        -1.555280        -0.077273
 H        -0.231493         0.604069         0.800692
 H        -0.187963         1.166473        -0.924863
 H        -0.538030        -0.547375        -0.595950
 H         2.510158         0.405275        -2.250028
 H         2.153103         1.783959        -1.129197
 H         4.641253         1.274147        -1.078832
 H         4.001235         0.876364         1.834535
 H         5.094341        -1.038489         0.313804
 H         1.296557        -2.194196        -0.890150
 H         1.511035        -1.889215         0.864029
