19
Iteration:  3444charge 0 multiplicity 1
 C         0.054477         0.417024        -0.209856
 C         1.505782         0.030352        -0.179997
 C         2.279129         0.311089        -1.465259
 C         3.685293         0.380922        -0.926215
 C         3.597250         0.756191         0.569724
 O         2.223317         0.744459         0.930201
 C         4.011884        -0.623413         0.217155
 O         3.234684        -1.699108         0.483197
 C         1.859770        -1.606858         0.170741
 H        -0.058954         1.075651         0.644487
 H        -0.139659         1.026940        -1.133793
 H        -0.662646        -0.485488        -0.213545
 H         2.232651        -0.426814        -2.212648
 H         2.054032         1.347770        -1.971101
 H         4.509996         0.729801        -1.555614
 H         4.185897         1.426893         1.087537
 H         5.116163        -0.794828         0.290086
 H         1.618373        -2.150326        -0.756817
 H         1.314983        -2.086709         0.986740
