19
Iteration:   279charge 0 multiplicity 1
 C         0.069397         0.403053        -0.177589
 C         1.554329         0.125535        -0.049881
 C         2.387543         1.390432         0.326909
 C         3.741685         0.686970         0.576230
 C         3.254024        -0.772516         1.111558
 O         1.810186        -0.865244         0.956695
 C         4.098294        -0.670930        -0.141498
 O         3.452128        -1.154848        -1.346274
 C         2.098018        -0.420910        -1.418376
 H         0.020391         1.406398        -0.738056
 H        -0.407442        -0.435661        -0.702647
 H        -0.352397         0.513917         0.823977
 H         2.429856         2.204678        -0.447288
 H         1.950739         1.801503         1.225366
 H         4.625028         1.110274         1.144490
 H         3.505663        -1.289936         2.093634
 H         5.176958        -0.937874        -0.136499
 H         2.370580         0.484518        -1.991630
 H         1.458815        -1.108351        -1.927295
