19
Iteration:   120charge 0 multiplicity 1
 C         0.097925         0.463796        -0.118815
 C         1.563933         0.093078        -0.159118
 C         2.503582         1.226509         0.330847
 C         3.726466         0.498266         0.747130
 C         3.184395        -0.916630         1.084566
 O         1.790136        -0.929734         0.910169
 C         4.015039        -0.674319        -0.082592
 O         3.514621        -0.636244        -1.386293
 C         2.105106        -0.451448        -1.494829
 H        -0.202476         1.330959        -0.808214
 H        -0.514960        -0.408817        -0.502315
 H        -0.199121         0.613407         0.934127
 H         2.527026         2.081628        -0.334816
 H         2.010601         1.595448         1.241334
 H         4.484132         0.981506         1.395569
 H         3.490222        -1.491079         1.990185
 H         5.056322        -1.079171        -0.131650
 H         1.926613         0.326554        -2.301018
 H         1.607686        -1.422877        -1.716723
