19
Iteration:   402
 C         0.104933         0.447709        -0.228351
 C         1.625137         0.118352        -0.044940
 C         2.525522         1.290786         0.082979
 C         3.749186         0.622888         0.633054
 C         3.236317        -0.741473         1.218141
 O         1.834409        -0.800934         1.070619
 C         4.016742        -0.637527        -0.124602
 O         3.409179        -0.882109        -1.368391
 C         2.000696        -0.686208        -1.326207
 H         0.010531        -0.063296        -1.247526
 H        -0.704780        -0.045465         0.447958
 H        -0.074636         1.497438        -0.352144
 H         2.572206         1.724245        -0.981099
 H         2.183853         2.119717         0.722734
 H         4.517533         1.229386         1.013831
 H         3.649097        -1.208035         2.102053
 H         5.015725        -1.032505        -0.118885
 H         1.789800        -0.286503        -2.319418
 H         1.457842        -1.637780        -1.174867
