19
Iteration:   419charge 0 multiplicity 1
 C         0.019672         0.378594        -0.271739
 C         1.524227         0.109878        -0.110331
 C         2.486246         1.331120         0.126149
 C         3.783285         0.644220         0.595753
 C         3.273725        -0.715257         1.142233
 O         1.835792        -0.688243         1.086446
 C         4.095561        -0.696715        -0.118242
 O         3.422158        -1.046885        -1.331652
 C         2.038233        -0.612001        -1.320915
 H        -0.423914         0.362534        -1.247845
 H        -0.437675        -0.389248         0.299177
 H        -0.271658         1.238741         0.440407
 H         2.762463         1.926481        -0.710282
 H         2.085001         1.992272         0.927527
 H         4.619646         1.164483         1.135403
 H         3.651864        -1.184071         2.036204
 H         5.187222        -1.023930        -0.019738
 H         2.039251         0.243982        -2.073743
 H         1.424838        -1.508898        -1.536882
