19
Iteration:   403charge 0 multiplicity 1
 C         0.104538         0.438444        -0.230157
 C         1.617363         0.120781        -0.044221
 C         2.527486         1.286547         0.085949
 C         3.743627         0.615693         0.628915
 C         3.242557        -0.735585         1.206303
 O         1.831882        -0.795060         1.075390
 C         4.020173        -0.637183        -0.127096
 O         3.417903        -0.895230        -1.357648
 C         1.999438        -0.669652        -1.327449
 H        -0.005124        -0.021966        -1.269369
 H        -0.678811        -0.094881         0.440559
 H        -0.089135         1.538743        -0.343173
 H         2.569162         1.727203        -0.989588
 H         2.176310         2.148985         0.755748
 H         4.517702         1.237557         1.001919
 H         3.655196        -1.237226         2.107148
 H         4.996589        -1.017781        -0.134389
 H         1.762734        -0.281369        -2.304586
 H         1.454077        -1.640865        -1.205421
