19
Iteration:   548
 C        -0.045908         0.396274        -0.275772
 C         1.538750         0.162742        -0.193357
 C         2.617114         1.268274        -0.038794
 C         3.780683         0.582183         0.646192
 C         3.248303        -0.700311         1.213687
 O         1.817896        -0.609234         1.209884
 C         4.082491        -0.702237        -0.138369
 O         3.430683        -0.798591        -1.369866
 C         1.997379        -0.858727        -1.206008
 H        -0.388543         0.063513         0.682693
 H        -0.083058         1.401731        -0.452719
 H        -0.627099        -0.272980        -1.043558
 H         3.046259         1.488245        -1.030836
 H         2.251303         2.228587         0.465663
 H         4.504918         1.269963         1.100258
 H         3.783934        -1.220385         1.937408
 H         5.118708        -1.202770        -0.096237
 H         1.513455        -0.715838        -2.130940
 H         1.691388        -1.937925        -1.113316
