19
Iteration:   417charge 0 multiplicity 1
 C         0.047723         0.378026        -0.285774
 C         1.512564         0.111736        -0.094120
 C         2.495222         1.317244         0.120770
 C         3.766823         0.632272         0.596076
 C         3.278779        -0.711563         1.134258
 O         1.832354        -0.702515         1.091721
 C         4.088151        -0.687788        -0.120987
 O         3.433426        -1.030643        -1.324369
 C         2.026542        -0.604968        -1.317613
 H        -0.413757         0.338958        -1.262521
 H        -0.414446        -0.356268         0.357292
 H        -0.268356         1.352903         0.375346
 H         2.791324         1.892855        -0.792131
 H         2.083422         2.049297         0.958908
 H         4.618915         1.172883         1.107988
 H         3.668042        -1.245975         2.052836
 H         5.135032        -0.989790        -0.049677
 H         1.926552         0.188999        -2.084066
 H         1.447337        -1.554626        -1.490377
