19
Iteration:  4844
 C         0.040226         0.263627        -0.108001
 C         1.557356         0.045787        -0.070591
 C         2.210953        -0.078516        -1.471948
 C         3.698976        -0.111758        -1.128260
 C         3.558112         0.875047         0.109409
 O         2.306625         1.065300         0.520367
 C         4.045261        -0.501090         0.289162
 O         3.209549        -1.514165         0.923496
 C         1.861089        -1.385658         0.481347
 H        -0.173033         1.227604         0.445973
 H        -0.297567         0.626483        -1.045837
 H        -0.518309        -0.675270         0.314384
 H         1.934352        -0.840633        -2.132490
 H         2.052497         0.907901        -1.972650
 H         4.324802        -0.174635        -1.988307
 H         4.215855         1.704068         0.286748
 H         5.049716        -0.738703         0.570023
 H         1.554994        -2.181093        -0.328807
 H         1.361665        -1.573707         1.428504
