19
Iteration:   490charge 0 multiplicity 1
 C        -0.037505         0.468134        -0.120325
 C         1.549337         0.145193        -0.166603
 C         2.462400         1.303166         0.150612
 C         3.740973         0.718316         0.543358
 C         3.332130        -0.655350         1.242244
 O         1.930151        -0.791003         0.960896
 C         4.087833        -0.604752        -0.098135
 O         3.330835        -1.256686        -1.149448
 C         2.110491        -0.612826        -1.488530
 H        -0.335836         1.475409         0.168548
 H        -0.470416         0.485100        -1.180413
 H        -0.612249        -0.313964         0.245595
 H         2.524532         1.849136        -0.840722
 H         2.045418         1.978233         0.816226
 H         4.586314         1.399306         0.808534
 H         3.692912        -0.997976         2.277590
 H         5.087017        -0.885305        -0.222424
 H         2.296490         0.358314        -2.028696
 H         1.480220        -1.402008        -1.928203
