19
Iteration:  2060charge 0 multiplicity 1
 C         0.035539         0.304674        -0.192614
 C         1.568062        -0.005025        -0.233103
 C         2.458893         1.126826        -0.837963
 C         3.828061         0.839547        -0.180764
 C         3.475251         0.133832         1.177040
 O         2.055830        -0.002515         1.251763
 C         4.042759        -0.656784         0.027451
 O         3.174580        -1.710489        -0.404548
 C         1.873452        -1.292739        -0.916593
 H        -0.047113         1.291227         0.314882
 H        -0.559105         0.378467        -1.106430
 H        -0.473872        -0.354765         0.476529
 H         2.424798         1.223154        -1.989501
 H         2.059601         2.142113        -0.563738
 H         4.674296         1.486265        -0.356281
 H         3.955436         0.433610         2.048015
 H         5.098970        -1.014262        -0.005353
 H         1.906378        -1.166319        -2.019300
 H         1.307131        -2.073360        -0.596205
