19
Iteration:  4581charge 0 multiplicity 1
 C        -0.017490         0.249798        -0.183177
 C         1.522683         0.018157        -0.037415
 C         2.254649        -0.086930        -1.539438
 C         3.753526        -0.011023        -1.113821
 C         3.622912         0.867128         0.211657
 O         2.205680         1.143175         0.479548
 C         4.079658        -0.609290         0.246546
 O         3.243449        -1.632730         0.747554
 C         1.869551        -1.308764         0.749377
 H        -0.449077         1.313250         0.144184
 H        -0.254036         0.210736        -1.216460
 H        -0.626833        -0.461670         0.420888
 H         1.998712        -0.984106        -2.108163
 H         2.059020         0.915536        -2.151262
 H         4.596822         0.232318        -1.849681
 H         4.148452         1.747712         0.379892
 H         5.119704        -0.821633         0.591145
 H         1.300596        -2.093745         0.267507
 H         1.323160        -1.269173         1.768426
