19
Iteration:  4419
 C         0.134406         0.382145        -0.181624
 C         1.581035        -0.024840        -0.124050
 C         2.137967        -0.063846        -1.524764
 C         3.622617         0.068567        -1.054693
 C         3.562405         0.836498         0.312794
 O         2.214449         1.045905         0.629150
 C         4.047325        -0.558267         0.219555
 O         3.281050        -1.618997         0.840696
 C         1.895164        -1.422825         0.491308
 H        -0.574387        -0.541535        -0.281640
 H        -0.293192         1.046940         0.561817
 H         0.131447         0.994128        -1.177415
 H         1.872850        -0.840071        -2.201009
 H         1.931451         0.933493        -1.958912
 H         4.394936         0.332983        -1.783149
 H         4.161278         1.740709         0.267523
 H         5.101616        -0.764196         0.225743
 H         1.709363        -2.264985        -0.298115
 H         1.291180        -1.694247         1.364500
