19
Iteration:  2573charge 0 multiplicity 1
 C         0.143528         0.306455        -0.200560
 C         1.618600        -0.019397        -0.137535
 C         2.449674         0.760338        -1.134864
 C         3.811524         0.709706        -0.511195
 C         3.442644         0.405570         1.012657
 O         2.054935         0.344847         1.199039
 C         3.956677        -0.605511         0.178649
 O         3.212935        -1.716297        -0.356748
 C         1.836415        -1.450043        -0.343914
 H        -0.528442        -0.225913         0.433321
 H         0.055787         1.315791         0.092161
 H        -0.357079         0.213763        -1.213678
 H         2.380489         0.283590        -2.039335
 H         1.984877         1.778234        -1.446972
 H         4.673382         1.253132        -0.891557
 H         4.104972         0.888761         1.735315
 H         5.029722        -0.895718         0.391709
 H         1.403074        -1.675333        -1.439452
 H         1.278647        -1.922020         0.423508
