19
Iteration:  2320charge 0 multiplicity 1
 C         0.093409         0.440317        -0.297531
 C         1.562546        -0.016298        -0.113068
 C         2.519426         0.736215        -0.998885
 C         3.764289         0.789661        -0.223614
 C         3.434156         0.295174         1.109935
 O         1.938952         0.225541         1.264685
 C         4.088627        -0.689068         0.027475
 O         3.273542        -1.559115        -0.723763
 C         1.851649        -1.498380        -0.359473
 H        -0.338077         0.757231         0.695618
 H         0.114161         1.334640        -0.914636
 H        -0.524830        -0.297989        -0.779721
 H         2.464783         0.396145        -1.986775
 H         2.006325         1.761649        -1.091968
 H         4.549860         1.554495        -0.314741
 H         3.913322         0.523135         2.097448
 H         5.060111        -1.167718         0.312224
 H         1.339731        -1.937481        -1.182357
 H         1.663156        -1.921233         0.638106
