19
Iteration:  2874
 C         0.054268         0.292450        -0.196614
 C         1.557801         0.026040        -0.135393
 C         2.374198         0.765951        -1.264609
 C         3.803730         0.582425        -0.654158
 C         3.496095         0.506862         0.807737
 O         2.081038         0.562419         1.094254
 C         4.064345        -0.674198         0.142261
 O         3.267522        -1.829767        -0.001519
 C         1.836754        -1.495281        -0.180003
 H        -0.337738         0.114236        -1.255819
 H        -0.499598        -0.318130         0.526384
 H        -0.328257         1.271566         0.089388
 H         2.249097         0.233164        -2.210755
 H         2.196704         1.804202        -1.480091
 H         4.510464         1.314477        -0.937219
 H         3.987894         1.085991         1.564533
 H         5.058988        -1.037633         0.328122
 H         1.445200        -2.056662        -1.085561
 H         1.318275        -1.823566         0.630018
