19
Iteration:  2367charge 0 multiplicity 1
 C         0.011393         0.276268        -0.211865
 C         1.536753         0.009026        -0.194344
 C         2.497966         0.933977        -0.958015
 C         3.852301         0.732068        -0.321634
 C         3.436314         0.292260         1.066090
 O         1.999698         0.320223         1.162891
 C         4.106827        -0.708392         0.104037
 O         3.237720        -1.718212        -0.548285
 C         1.839432        -1.421279        -0.408729
 H        -0.514799        -0.583750         0.082442
 H        -0.124262         1.065296         0.500051
 H        -0.309222         0.547412        -1.289970
 H         2.609251         0.753012        -1.978780
 H         2.251517         1.986090        -0.907607
 H         4.676049         1.441921        -0.424752
 H         3.894240         0.742839         1.913453
 H         5.117091        -1.025746         0.142498
 H         1.397078        -1.683735        -1.379139
 H         1.250609        -1.888930         0.471163
