19
Iteration:  3323
 C         0.066118         0.340244        -0.249685
 C         1.507715         0.016391        -0.102388
 C         2.412724         0.234672        -1.445377
 C         3.798342         0.504770        -0.861045
 C         3.474204         0.626778         0.738479
 O         2.117081         0.789226         0.988137
 C         4.066450        -0.644830         0.125120
 O         3.217544        -1.744304         0.080285
 C         1.827604        -1.429771         0.318071
 H        -0.219548        -0.448166        -1.013221
 H        -0.361085         0.280348         0.742373
 H        -0.093416         1.451821        -0.643035
 H         2.284336        -0.609445        -2.019605
 H         2.116790         1.130356        -2.111831
 H         4.489054         1.268502        -1.247447
 H         4.123934         1.410857         1.288718
 H         5.095475        -0.898240         0.384516
 H         1.194380        -2.264798        -0.184510
 H         1.597845        -1.448305         1.311842
