19
Iteration:  1697charge 0 multiplicity 1
 C         0.017120         0.401052        -0.176510
 C         1.532323         0.102894        -0.200359
 C         2.516023         1.101705        -0.716063
 C         3.836676         0.778819         0.064352
 C         3.360260        -0.031311         1.209767
 O         1.942959        -0.088533         1.260332
 C         4.029647        -0.714426         0.039092
 O         3.362228        -1.517250        -0.856803
 C         1.903444        -1.260701        -0.886273
 H        -0.523157         0.014111        -1.008477
 H        -0.364607        -0.070284         0.799138
 H        -0.216201         1.502603        -0.091684
 H         2.670517         0.767099        -1.727344
 H         2.135225         2.122097        -0.641091
 H         4.604240         1.613713         0.056836
 H         3.822227         0.048003         2.201109
 H         5.074817        -1.038963         0.131614
 H         1.683735        -1.360386        -1.916752
 H         1.303782        -2.092301        -0.403379
