19
Iteration:   932charge 0 multiplicity 1
 C         0.070494         0.367776        -0.255289
 C         1.561144         0.155120        -0.139597
 C         2.572518         1.293160        -0.272897
 C         3.822948         0.674724         0.396646
 C         3.208844        -0.498422         1.231918
 O         1.837524        -0.389295         1.283365
 C         4.039008        -0.720853        -0.090022
 O         3.448224        -1.098685        -1.314203
 C         1.957331        -1.064013        -1.066234
 H        -0.157702         1.484000        -0.356465
 H        -0.525908        -0.226137        -1.123919
 H        -0.516955         0.165817         0.732257
 H         2.480530         1.592252        -1.290040
 H         2.168588         2.220967         0.242002
 H         4.577786         1.242818         0.927933
 H         3.676372        -0.721395         2.178638
 H         5.146862        -1.023688        -0.049593
 H         1.485699        -1.117323        -2.047528
 H         1.725416        -1.949354        -0.525216
