19
Iteration:  2963charge 0 multiplicity 1
 C         0.090502         0.311585        -0.250363
 C         1.562311        -0.034220        -0.121795
 C         2.385303         0.604731        -1.252293
 C         3.763863         0.641238        -0.701926
 C         3.486994         0.579055         0.772834
 O         2.109794         0.638745         1.055990
 C         4.066139        -0.708018         0.173813
 O         3.224589        -1.793807        -0.106246
 C         1.816693        -1.520756         0.038538
 H        -0.085873         1.183458         0.425671
 H        -0.126911         0.536774        -1.258196
 H        -0.639271        -0.573507        -0.058189
 H         2.320929         0.280829        -2.338441
 H         2.006556         1.575859        -1.280164
 H         4.611840         1.260008        -1.071997
 H         4.112365         1.101652         1.561115
 H         5.049208        -0.973596         0.545078
 H         1.234032        -2.095887        -0.833686
 H         1.526518        -1.933671         1.084195
