19
Iteration:  4764charge 0 multiplicity 1
 C        -0.003742         0.320849        -0.201425
 C         1.458572         0.027420        -0.083746
 C         2.165083        -0.252804        -1.418678
 C         3.694464         0.001612        -1.019766
 C         3.600034         0.861058         0.204528
 O         2.223761         1.176044         0.471304
 C         4.091867        -0.534981         0.286384
 O         3.313734        -1.690344         0.640745
 C         1.918742        -1.230346         0.705616
 H        -0.703603        -0.138856         0.617238
 H        -0.031211         1.440120        -0.313745
 H        -0.379852        -0.100065        -1.106937
 H         2.109101        -1.262309        -1.826550
 H         1.924982         0.495092        -2.175960
 H         4.372326         0.167846        -1.906639
 H         4.435371         1.538782         0.373421
 H         5.154623        -0.676062         0.622887
 H         1.246493        -2.164389         0.380234
 H         1.597802        -0.996750         1.750284
