19
Iteration:  4724charge 0 multiplicity 1
 C         0.110053         0.197063        -0.142587
 C         1.589624        -0.086390        -0.147855
 C         2.323938        -0.231785        -1.540773
 C         3.741644         0.133143        -1.160729
 C         3.597518         0.861549         0.167106
 O         2.203610         1.095772         0.533200
 C         4.029130        -0.577732         0.295642
 O         3.110489        -1.635750         0.610813
 C         1.818989        -1.096047         0.834179
 H        -0.557520        -0.353399         0.665138
 H         0.061493         1.138158         0.283402
 H        -0.430958        -0.007231        -1.151261
 H         2.268083        -1.256712        -1.911449
 H         1.748659         0.466081        -2.261723
 H         4.580619         0.308998        -1.757445
 H         4.115674         1.731829         0.711467
 H         5.038875        -0.840974         0.503232
 H         1.088795        -1.960379         1.042758
 H         1.951847        -0.598659         1.783782
