19
Iteration:  2716
 C         0.051855         0.317672        -0.256832
 C         1.563774        -0.037022        -0.108050
 C         2.430616         0.604655        -1.167647
 C         3.849463         0.733427        -0.485340
 C         3.469591         0.429756         0.989676
 O         2.059619         0.561507         1.118266
 C         4.054229        -0.610862         0.095959
 O         3.215440        -1.707522        -0.403656
 C         1.812769        -1.565007        -0.115768
 H        -0.050481         1.416703        -0.205500
 H        -0.390850        -0.119335        -1.223772
 H        -0.554509        -0.065264         0.698647
 H         2.495696         0.089594        -2.047902
 H         2.095523         1.688694        -1.523103
 H         4.772999         1.279191        -0.712949
 H         4.032147         0.859480         1.811966
 H         5.037782        -0.906906         0.343196
 H         1.240511        -1.939542        -0.944689
 H         1.551419        -2.072459         0.818193
