19
Iteration:  4965
 C         0.053398         0.301143        -0.163812
 C         1.495541        -0.048542        -0.109084
 C         2.287125        -0.142826        -1.514280
 C         3.743560         0.176258        -1.018320
 C         3.632398         0.888137         0.248204
 O         2.214928         1.022145         0.516174
 C         4.064561        -0.600572         0.230660
 O         3.169061        -1.683125         0.561937
 C         1.836593        -1.217592         0.752456
 H        -0.268827         0.911234        -1.012482
 H        -0.573300        -0.667444        -0.097273
 H        -0.323115         0.883683         0.797495
 H         2.200513        -1.134293        -1.929521
 H         1.935032         0.537824        -2.297810
 H         4.653557         0.141813        -1.695528
 H         4.090938         1.772039         0.662412
 H         5.088524        -0.847474         0.657667
 H         1.287638        -2.087525         0.645972
 H         1.829653        -0.822803         1.783113
