19
Iteration:  2766charge 0 multiplicity 1
 C         0.048106         0.273472        -0.235837
 C         1.545053        -0.049417        -0.179478
 C         2.444235         0.738344        -1.145004
 C         3.853025         0.685291        -0.586472
 C         3.481078         0.505806         0.941346
 O         2.061033         0.547698         1.068870
 C         4.030412        -0.703751         0.114443
 O         3.227811        -1.723956        -0.248952
 C         1.814075        -1.559604        -0.096294
 H        -0.274429         0.629426         0.780516
 H        -0.184729         1.154540        -0.824163
 H        -0.565927        -0.524700        -0.675870
 H         2.548445         0.421625        -2.306835
 H         2.218664         1.754567        -1.064120
 H         4.623241         1.271740        -1.057960
 H         3.974811         0.864188         1.813670
 H         5.104207        -0.995356         0.288505
 H         1.276342        -2.154007        -0.878275
 H         1.485170        -1.920567         0.926870
