19
Iteration:  1863charge 0 multiplicity 1
 C         0.146246         0.377136        -0.269206
 C         1.602838         0.081659        -0.169729
 C         2.403128         1.247001        -0.680085
 C         3.751113         0.844663        -0.152256
 C         3.448318         0.070736         1.156190
 O         2.005915        -0.165848         1.257466
 C         4.022051        -0.700638         0.026759
 O         3.249105        -1.738798        -0.581269
 C         1.893121        -1.205750        -0.874282
 H        -0.344496         0.155435         0.745680
 H        -0.198566         1.337602        -0.602370
 H        -0.395075        -0.349702        -0.824197
 H         2.277800         1.307681        -1.805118
 H         2.060476         2.106808        -0.205822
 H         4.654543         1.476119        -0.176570
 H         4.044023         0.369463         2.093960
 H         5.062280        -1.035707         0.109600
 H         1.814224        -1.058763        -2.005036
 H         1.161803        -2.072290        -0.723837
