19
Iteration:  2811
 C         0.009040         0.275411        -0.146086
 C         1.529941         0.027940        -0.128370
 C         2.409807         0.695695        -1.278090
 C         3.756389         0.591879        -0.652522
 C         3.506633         0.555517         0.915916
 O         2.114161         0.447047         1.134315
 C         4.064081        -0.653669         0.153003
 O         3.200595        -1.765438         0.035719
 C         1.881581        -1.392160        -0.363716
 H        -0.534492        -0.605694         0.262840
 H        -0.086845         1.124248         0.496036
 H        -0.146674         0.588466        -1.245781
 H         2.281612        -0.041297        -2.285899
 H         2.194533         1.702569        -1.510319
 H         4.611748         1.029618        -1.101648
 H         4.215466         1.037719         1.578543
 H         5.098326        -0.879308         0.140473
 H         1.753748        -1.720105        -1.425561
 H         1.104310        -1.986661         0.260730
