19
Iteration:  2921
 C         0.087722         0.334116        -0.228319
 C         1.554605         0.029648        -0.144347
 C         2.463523         0.519151        -1.323266
 C         3.822585         0.664431        -0.582493
 C         3.399768         0.490448         0.859872
 O         2.032820         0.633589         1.097539
 C         4.036094        -0.664262         0.152118
 O         3.236306        -1.794526        -0.305555
 C         1.890421        -1.455759         0.100535
 H        -0.131895         1.290328        -0.709469
 H        -0.591271        -0.433469        -0.555413
 H        -0.340934         0.452605         0.855377
 H         2.377747        -0.283076        -2.191833
 H         2.115555         1.391325        -1.791493
 H         4.551036         1.458732        -0.893979
 H         4.101028         0.990192         1.569695
 H         5.003682        -1.046029         0.492040
 H         1.297213        -2.126338        -0.611766
 H         1.675063        -1.765303         1.027645
