19
Iteration:  2767charge 0 multiplicity 1
 C         0.053953         0.274218        -0.225480
 C         1.544573        -0.052712        -0.181715
 C         2.446587         0.737159        -1.142403
 C         3.850841         0.692608        -0.588886
 C         3.482673         0.505717         0.931968
 O         2.055519         0.549571         1.062938
 C         4.037704        -0.706158         0.118105
 O         3.225915        -1.729748        -0.241022
 C         1.813508        -1.561127        -0.106843
 H        -0.297890         0.629830         0.759972
 H        -0.178187         1.150273        -0.774922
 H        -0.583112        -0.517311        -0.714375
 H         2.556491         0.436432        -2.304136
 H         2.238450         1.764746        -1.032980
 H         4.618181         1.272645        -1.043917
 H         3.966696         0.864157         1.809914
 H         5.091934        -0.970572         0.274495
 H         1.274461        -2.124860        -0.865459
 H         1.471326        -1.936516         0.956877
