19
Iteration:  4240charge 0 multiplicity 1
 C         0.081376         0.297979        -0.069249
 C         1.564340         0.048683        -0.253091
 C         2.233609         0.200023        -1.569260
 C         3.653557         0.001101        -1.095118
 C         3.577235         0.871826         0.334330
 O         2.201721         0.944379         0.646268
 C         4.025901        -0.616278         0.240597
 O         3.243058        -1.659096         0.890074
 C         1.901061        -1.406349         0.378488
 H        -0.234539         1.046271         0.831174
 H        -0.388687         0.666904        -1.106528
 H        -0.371908        -0.598629         0.292768
 H         1.766751        -0.588598        -2.204695
 H         2.211138         1.114613        -2.180923
 H         4.472120         0.355041        -1.785981
 H         4.276629         1.620982         0.610552
 H         5.121953        -0.746165         0.294676
 H         1.736850        -2.306174        -0.291158
 H         1.272141        -1.512523         1.251503
