19
Iteration:  4755charge 0 multiplicity 1
 C        -0.027187         0.313792        -0.212290
 C         1.500352         0.050960        -0.092894
 C         2.210104        -0.220076        -1.418377
 C         3.730029         0.058419        -1.077724
 C         3.612199         0.831472         0.238594
 O         2.199881         1.185469         0.389393
 C         4.114886        -0.603807         0.315643
 O         3.275380        -1.680252         0.617287
 C         1.904766        -1.266579         0.795759
 H        -0.546632        -0.209657         0.729905
 H        -0.270345         1.366715        -0.096735
 H        -0.487141         0.046965        -1.206074
 H         2.043891        -1.238511        -1.639264
 H         1.679737         0.328545        -2.221905
 H         4.476863         0.274016        -1.826154
 H         4.163747         1.701160         0.696850
 H         5.180422        -0.737979         0.407040
 H         1.139799        -2.157192         0.480398
 H         1.902102        -1.039332         1.859509
