19
Iteration:   372charge 0 multiplicity 1
 C         0.073957         0.545073        -0.151706
 C         1.529660         0.002990        -0.167397
 C         2.539009         1.183078         0.057787
 C         3.752402         0.584708         0.712662
 C         3.202759        -0.723460         1.141973
 O         1.784592        -0.736077         1.056845
 C         4.092243        -0.651454        -0.152107
 O         3.474850        -0.680127        -1.343624
 C         2.020053        -0.866274        -1.344170
 H        -0.645351        -0.261634        -0.105050
 H        -0.068666         1.187560         0.722029
 H        -0.097326         1.247990        -1.067338
 H         2.741758         1.742557        -0.903414
 H         2.111048         1.927793         0.848340
 H         4.425165         1.231170         1.260520
 H         3.690925        -1.314933         1.948484
 H         5.029605        -1.102030        -0.076199
 H         1.816743        -0.642900        -2.364935
 H         1.738947        -1.904140        -0.997388
