19
Iteration:  1241
 C        -0.008695         0.377156        -0.068174
 C         1.554629         0.074101        -0.219073
 C         2.467671         1.307512        -0.466433
 C         3.826770         0.825613         0.144744
 C         3.371633        -0.152892         1.199379
 O         1.933717        -0.389148         1.104489
 C         4.086044        -0.719466         0.008916
 O         3.243496        -1.582117        -0.708945
 C         2.049092        -0.997830        -1.235719
 H        -0.305893        -0.018598         0.918528
 H        -0.366738         1.455172        -0.053571
 H        -0.632160        -0.116817        -0.806724
 H         2.398407         1.616883        -1.523284
 H         2.019367         2.325820         0.035903
 H         4.716426         1.461551         0.175188
 H         3.780489        -0.161056         2.258612
 H         5.166869        -1.148958        -0.004839
 H         2.332997        -0.315824        -2.173069
 H         1.305090        -1.796797        -1.653143
