19
Iteration:  2938
 C        -0.008047         0.399152        -0.200416
 C         1.499690        -0.008043        -0.194948
 C         2.454893         0.593523        -1.290764
 C         3.764640         0.608692        -0.610133
 C         3.446250         0.529532         0.924779
 O         2.036665         0.641281         1.005803
 C         4.050658        -0.696596         0.091315
 O         3.301703        -1.814573        -0.229017
 C         1.904885        -1.535979         0.091143
 H         0.018409         1.524187        -0.254924
 H        -0.478986        -0.042730        -1.108882
 H        -0.516891         0.067183         0.669847
 H         2.573175         0.080996        -2.187721
 H         2.085120         1.678215        -1.552407
 H         4.625641         1.043752        -1.047931
 H         3.955730         0.857311         1.831803
 H         5.087535        -0.854829         0.311921
 H         1.306977        -2.379989        -0.263965
 H         1.990539        -1.521386         1.309839
