19
Iteration:  3537charge 0 multiplicity 1
 C         0.027613         0.411630        -0.281221
 C         1.472030        -0.066582        -0.089783
 C         2.353825         0.165409        -1.434177
 C         3.715370         0.390042        -0.891096
 C         3.537889         0.717008         0.634407
 O         2.116260         0.912992         0.799761
 C         4.076852        -0.649730         0.216611
 O         3.299688        -1.797619         0.142970
 C         1.881270        -1.387653         0.541542
 H        -0.765161        -0.411195        -0.341086
 H        -0.275675         1.095510         0.519618
 H         0.022740         0.962659        -1.222980
 H         2.101656        -0.781118        -2.040816
 H         1.942482         0.963170        -1.977836
 H         4.511503         0.715673        -1.596373
 H         4.267661         1.401948         1.133139
 H         5.159608        -0.799896         0.325284
 H         1.231115        -2.231915         0.109394
 H         1.793252        -1.348360         1.531813
