19
Iteration:  2702charge 0 multiplicity 1
 C         0.095258         0.359644        -0.183463
 C         1.519490        -0.052883        -0.174882
 C         2.456512         0.772260        -1.229869
 C         3.795049         0.699524        -0.504790
 C         3.468970         0.519040         0.986425
 O         2.076319         0.475483         1.081385
 C         3.978037        -0.687331         0.203017
 O         3.268290        -1.739239        -0.365602
 C         1.853625        -1.583606        -0.168243
 H        -0.028809         1.332854        -0.675046
 H        -0.538646        -0.280329        -0.791347
 H        -0.406301         0.273114         0.900609
 H         2.431693         0.257266        -2.255610
 H         1.991800         1.747010        -1.178542
 H         4.584938         1.230192        -0.993211
 H         3.926632         0.901591         1.882377
 H         5.039314        -1.006548         0.397488
 H         1.397074        -2.192610        -0.907232
 H         1.507323        -1.998825         0.899623
