19
Iteration:  1057charge 0 multiplicity 1
 C         0.039419         0.292020        -0.192910
 C         1.544686         0.077686        -0.132941
 C         2.367237         1.395971        -0.279908
 C         3.824068         0.811940         0.209742
 C         3.418150        -0.271097         1.219535
 O         1.970038        -0.456961         1.152360
 C         4.055782        -0.772565        -0.075335
 O         3.150436        -1.548665        -0.803012
 C         2.145197        -0.774111        -1.309309
 H        -0.528799        -0.684318         0.032182
 H        -0.425808         1.163950         0.537782
 H        -0.115854         0.532928        -1.273311
 H         2.354669         1.966000        -1.283591
 H         2.136469         2.154111         0.467262
 H         4.760606         1.400776         0.394343
 H         3.741531        -0.356725         2.204362
 H         5.036599        -1.189322        -0.251474
 H         2.478064        -0.234372        -2.187044
 H         1.313245        -1.450176        -1.630126
