19
Iteration:  2276charge 0 multiplicity 1
 C         0.136681         0.270214        -0.200866
 C         1.562744         0.099940        -0.198219
 C         2.462916         1.034271        -0.970867
 C         3.796594         0.747540        -0.298983
 C         3.411244         0.257064         1.073190
 O         1.965653         0.215771         1.208549
 C         4.033577        -0.724774         0.088698
 O         3.256369        -1.798984        -0.456063
 C         1.884233        -1.344939        -0.578366
 H        -0.179517         1.251760         0.314538
 H        -0.414819         0.132144        -1.147281
 H        -0.165640        -0.468237         0.521070
 H         2.446772         0.903691        -2.042571
 H         2.225311         2.164330        -0.831631
 H         4.568996         1.485485        -0.557739
 H         3.925030         0.578842         2.034458
 H         5.152849        -0.987209         0.175230
 H         1.588407        -1.326881        -1.626467
 H         1.261096        -2.125139         0.019055
