19
Iteration:  2023
 C        -0.024317         0.236691        -0.082701
 C         1.494640         0.114382        -0.212258
 C         2.451836         1.247076        -0.850495
 C         3.832408         0.751350        -0.315021
 C         3.454846         0.074996         1.135337
 O         1.995688        -0.002029         1.204774
 C         4.033184        -0.724598         0.093504
 O         3.226619        -1.767125        -0.386866
 C         2.032330        -1.168312        -0.955304
 H        -0.274343         1.136367        -0.702551
 H        -0.604334        -0.626069        -0.476769
 H        -0.064172         0.422418         1.014906
 H         2.306329         1.299679        -1.870885
 H         2.281884         2.194666        -0.219270
 H         4.757128         1.379440        -0.372084
 H         3.848612         0.407274         2.177339
 H         5.033754        -1.091380         0.268277
 H         2.077997        -0.913714        -1.981682
 H         1.196748        -1.939482        -0.807288
