19
Iteration:  3197
 C         0.000745         0.392966        -0.207856
 C         1.557007         0.009917        -0.174037
 C         2.286991         0.547364        -1.423275
 C         3.666638         0.514189        -0.822249
 C         3.518118         0.608606         0.682330
 O         2.131599         0.666961         0.976014
 C         4.087176        -0.714778         0.236038
 O         3.321016        -1.823298         0.292870
 C         1.906775        -1.515675         0.065240
 H        -0.054425         1.397797         0.293012
 H        -0.311882         0.660623        -1.310304
 H        -0.598229        -0.430601         0.103008
 H         2.283495        -0.011394        -2.489631
 H         1.960697         1.541007        -1.565076
 H         4.611866         0.898258        -1.288248
 H         4.071120         1.435161         1.209820
 H         5.128249        -1.012923         0.276682
 H         1.575933        -1.930948        -0.875926
 H         1.233653        -1.795126         0.962252
