19
Iteration:   609charge 0 multiplicity 1
 C         0.081151         0.449798        -0.148940
 C         1.503515         0.083437        -0.144175
 C         2.450735         1.335890         0.022574
 C         3.748646         0.677027         0.550704
 C         3.289219        -0.554829         1.180955
 O         1.867812        -0.626927         0.994950
 C         4.079508        -0.664381        -0.087194
 O         3.490267        -1.171719        -1.242379
 C         1.957476        -0.824789        -1.309357
 H        -0.687236        -0.258314        -0.490781
 H        -0.347434         0.682700         0.910026
 H         0.109816         1.352689        -0.702351
 H         2.660683         1.879551        -0.938301
 H         2.019890         2.045832         0.684872
 H         4.484014         1.380837         1.015954
 H         3.597498        -1.106839         2.072325
 H         5.125304        -0.941319         0.015657
 H         1.927414        -0.167961        -2.249202
 H         1.476781        -1.779137        -1.290771
