19
Iteration:  1698charge 0 multiplicity 1
 C         0.006803         0.403369        -0.176479
 C         1.525195         0.101099        -0.195648
 C         2.518786         1.091912        -0.719398
 C         3.842961         0.782900         0.067181
 C         3.362083        -0.036926         1.223080
 O         1.948440        -0.086913         1.255221
 C         4.026545        -0.710739         0.034126
 O         3.362347        -1.501601        -0.857726
 C         1.899917        -1.264821        -0.884840
 H        -0.523719         0.043074        -1.059540
 H        -0.367813        -0.080526         0.783603
 H        -0.174480         1.498709        -0.078955
 H         2.717714         0.760309        -1.775301
 H         2.133609         2.083683        -0.649358
 H         4.589322         1.603093         0.045609
 H         3.818782         0.018813         2.191643
 H         5.088791        -1.052581         0.129794
 H         1.667456        -1.409336        -1.854205
 H         1.309347        -2.099730        -0.404547
