19
Iteration:  4996
 C         0.047119         0.245906        -0.103822
 C         1.510588        -0.013373        -0.122665
 C         2.315431        -0.074457        -1.533603
 C         3.729727         0.078345        -1.057240
 C         3.593952         0.852269         0.251270
 O         2.200548         1.080213         0.512650
 C         4.085218        -0.653790         0.199908
 O         3.218222        -1.623233         0.734069
 C         1.795931        -1.263769         0.621038
 H        -0.459418         0.615383        -1.047720
 H        -0.457301        -0.562670         0.376766
 H        -0.061428         1.166848         0.600719
 H         2.038394        -0.956824        -2.129593
 H         1.971780         0.858259        -2.098539
 H         4.630128         0.362137        -1.679810
 H         4.201406         1.720991         0.448589
 H         5.162839        -0.816447         0.524800
 H         1.315564        -2.161845         0.148814
 H         1.446132        -1.208236         1.730556
