19
Iteration:  2537charge 0 multiplicity 1
 C        -0.069956         0.329435        -0.268803
 C         1.465087         0.034096        -0.118321
 C         2.534285         0.794526        -1.063615
 C         3.863976         0.771461        -0.400194
 C         3.448158         0.257813         1.027264
 O         2.020774         0.454046         1.120906
 C         4.048842        -0.704818         0.058432
 O         3.265531        -1.711498        -0.534085
 C         1.898938        -1.484770        -0.160742
 H        -0.323523         0.708995         0.761587
 H         0.061739         1.209892        -0.902341
 H        -0.712352        -0.480358        -0.775819
 H         2.690667         0.175329        -1.991534
 H         2.095178         1.770123        -1.181728
 H         4.633261         1.550910        -0.479764
 H         3.985050         0.683391         1.890164
 H         5.030619        -0.955985         0.297614
 H         1.362398        -2.126996        -0.874851
 H         1.740692        -2.027237         0.845162
