19
Iteration:  3016
 C         0.055119         0.269395        -0.083741
 C         1.563671        -0.011628        -0.251376
 C         2.395710         0.686289        -1.297710
 C         3.799078         0.552544        -0.802901
 C         3.497937         0.614415         0.750232
 O         2.108278         0.554713         0.986618
 C         4.050383        -0.640126         0.149104
 O         3.168436        -1.796196         0.281790
 C         1.878449        -1.508573        -0.202523
 H        -0.291737        -0.086967         0.913743
 H        -0.066684         1.330562        -0.090182
 H        -0.592149        -0.032990        -0.896226
 H         2.149496         0.364538        -2.297060
 H         2.183560         1.825796        -1.410200
 H         4.702251         1.107133        -1.145245
 H         4.073424         1.186686         1.535657
 H         5.054787        -0.916518         0.451972
 H         1.702567        -1.988573        -1.120484
 H         1.192542        -2.112941         0.514465
