19
Iteration:  1079charge 0 multiplicity 1
 C         0.075274         0.383330        -0.118995
 C         1.562849         0.116873        -0.186416
 C         2.481354         1.328018        -0.301274
 C         3.696348         0.799253         0.214126
 C         3.349305        -0.279784         1.227248
 O         1.950820        -0.462425         1.088589
 C         4.032913        -0.684291        -0.031587
 O         3.292181        -1.555198        -0.840277
 C         2.040493        -0.886946        -1.287431
 H        -0.497116        -0.554598        -0.495790
 H        -0.278648         0.425973         1.017563
 H        -0.336911         1.279237        -0.628155
 H         2.558987         1.817975        -1.287210
 H         2.326907         2.194031         0.330243
 H         4.540840         1.516208         0.224017
 H         3.771597        -0.290151         2.190481
 H         5.069279        -1.020236         0.054188
 H         2.197385        -0.351624        -2.213800
 H         1.312446        -1.721458        -1.492515
