19
Iteration:  1768
 C         0.017011         0.357151        -0.299747
 C         1.519236         0.055501        -0.107898
 C         2.499187         1.190980        -0.616128
 C         3.846069         0.766585        -0.032979
 C         3.438755        -0.076441         1.138718
 O         1.947293         0.044222         1.252541
 C         4.074328        -0.732406        -0.035623
 O         3.344350        -1.514973        -0.824383
 C         1.870432        -1.334138        -0.768503
 H        -0.268949         1.332900        -0.826657
 H        -0.433115        -0.410584        -0.906022
 H        -0.668243         0.357017         0.575633
 H         2.491896         1.231471        -1.774168
 H         2.264553         2.116693        -0.012330
 H         4.595994         1.549971         0.218113
 H         3.781781        -0.025863         2.221488
 H         4.994709        -1.238969         0.160725
 H         1.392733        -1.567131        -1.789951
 H         1.425750        -2.186263        -0.188556
