19
Iteration:  4624
 C         0.004410         0.350433        -0.038411
 C         1.534099        -0.034931        -0.203961
 C         2.277673        -0.140586        -1.598778
 C         3.739760         0.071421        -1.119419
 C         3.621831         0.827215         0.166007
 O         2.271267         0.981671         0.519955
 C         4.043471        -0.576850         0.223858
 O         3.198004        -1.401946         0.985349
 C         1.820046        -1.397421         0.555626
 H        -0.358528         0.970349         0.894528
 H        -0.368941         0.668754        -1.004823
 H        -0.530679        -0.578188         0.118941
 H         2.040999        -1.083414        -2.061616
 H         1.900847         0.795837        -2.152311
 H         4.526687         0.353536        -1.880782
 H         4.269194         1.594012         0.420491
 H         5.094927        -0.929043         0.167052
 H         1.568988        -2.313397         0.037347
 H         1.279998        -1.553033         1.448064
