19
Iteration:  4312charge 0 multiplicity 1
 C         0.077958         0.302209        -0.275408
 C         1.571989        -0.026664        -0.155325
 C         2.239109        -0.080918        -1.497488
 C         3.727178         0.182877        -1.068919
 C         3.541151         0.867538         0.389204
 O         2.226510         0.974753         0.736545
 C         4.084816        -0.579374         0.175975
 O         3.203807        -1.699295         0.525797
 C         1.823429        -1.296261         0.682313
 H        -0.375589         0.195972         0.627835
 H         0.064249         1.324100        -0.508330
 H        -0.535862        -0.335640        -0.966041
 H         2.143720        -1.023240        -2.090029
 H         1.862450         0.730163        -2.122323
 H         4.352800         0.628569        -1.824546
 H         4.191513         1.717320         0.770289
 H         5.090221        -0.725670         0.482717
 H         1.127335        -2.126030         0.614735
 H         1.830960        -0.849262         1.696297
