19
Iteration:  4634charge 0 multiplicity 1
 C        -0.033111         0.333298        -0.108525
 C         1.514019        -0.083952        -0.179113
 C         2.326176        -0.095960        -1.546334
 C         3.699395         0.067703        -1.136156
 C         3.600214         0.836854         0.112390
 O         2.276062         0.907295         0.560256
 C         4.095327        -0.639377         0.162329
 O         3.222025        -1.334456         0.996878
 C         1.783192        -1.394543         0.583015
 H         0.038459         0.944767         0.929439
 H        -0.508749         1.150306        -0.673709
 H        -0.629627        -0.531622         0.004945
 H         2.158550        -0.992947        -2.109969
 H         2.027819         0.712521        -2.274637
 H         4.459328         0.317224        -1.931090
 H         4.156793         1.641613         0.442477
 H         5.126367        -0.764748         0.574589
 H         1.571626        -2.282751        -0.073281
 H         1.233757        -1.262859         1.435030
