19
Iteration:  4321
 C         0.062142         0.327423        -0.282505
 C         1.505115        -0.074192        -0.085537
 C         2.277739        -0.020512        -1.419937
 C         3.717937         0.216783        -1.049488
 C         3.583323         0.819105         0.339067
 O         2.172912         1.033639         0.632539
 C         4.094591        -0.593012         0.213526
 O         3.246616        -1.735408         0.475613
 C         1.836546        -1.292289         0.732439
 H        -0.531576         0.042307         0.644321
 H        -0.078092         1.365206        -0.445541
 H        -0.355303        -0.181409        -1.264489
 H         2.029882        -0.982112        -1.858728
 H         1.894612         0.836718        -2.026837
 H         4.488702         0.384877        -1.744837
 H         4.192077         1.730000         0.669992
 H         5.104057        -0.857322         0.425890
 H         1.248805        -2.240909         0.624313
 H         1.789699        -1.088169         1.754042
