19
Iteration:  1937
 C         0.026377         0.462403        -0.185070
 C         1.496623        -0.012028        -0.166511
 C         2.547784         0.990489        -0.832015
 C         3.830747         0.826137         0.003228
 C         3.333215        -0.003838         1.172985
 O         1.956901         0.140278         1.262208
 C         4.049700        -0.717079         0.083883
 O         3.366224        -1.456386        -0.984584
 C         1.885618        -1.505730        -0.630692
 H        -0.643652        -0.315154        -0.561682
 H        -0.192808         0.583375         0.869495
 H        -0.312210         1.320703        -0.706059
 H         2.645182         0.895444        -1.895499
 H         2.115710         2.077620        -0.661102
 H         4.594990         1.615213         0.055783
 H         3.794135        -0.017100         2.235945
 H         5.065019        -1.121660         0.286276
 H         1.461615        -1.875647        -1.624541
 H         1.680853        -2.231384         0.067627
