19
Iteration:  2326charge 0 multiplicity 1
 C         0.152118         0.450889        -0.271491
 C         1.520957        -0.051660        -0.104610
 C         2.505143         0.819220        -1.015282
 C         3.782223         0.753459        -0.264618
 C         3.350285         0.244370         1.152212
 O         1.945994         0.257062         1.268178
 C         4.045159        -0.668171         0.012879
 O         3.288733        -1.587393        -0.719824
 C         1.911749        -1.475749        -0.359835
 H        -0.372976         0.560456         0.691682
 H         0.215182         1.412601        -0.842826
 H        -0.555782        -0.183944        -0.872672
 H         2.548120         0.200192        -2.044110
 H         2.141287         1.809632        -1.070645
 H         4.527851         1.513271        -0.442377
 H         3.812245         0.567449         2.068760
 H         5.062925        -1.023224         0.240849
 H         1.204778        -2.070674        -1.057230
 H         1.865721        -2.009957         0.631174
