19
Iteration:  2907charge 0 multiplicity 1
 C         0.076886         0.270329        -0.201668
 C         1.553125         0.001903        -0.081190
 C         2.452659         0.490051        -1.262582
 C         3.801474         0.620889        -0.596573
 C         3.517905         0.591758         0.903582
 O         2.104946         0.645820         1.074080
 C         4.040771        -0.667971         0.175512
 O         3.184539        -1.673781        -0.282749
 C         1.773959        -1.526862        -0.064532
 H        -0.125702         0.863182        -1.155488
 H        -0.364867        -0.676999        -0.438516
 H        -0.250560         0.793927         0.694238
 H         2.562152        -0.356314        -1.929126
 H         2.114302         1.394152        -1.712955
 H         4.607068         1.257607        -0.930870
 H         3.977329         1.135552         1.749714
 H         5.021497        -1.020862         0.371480
 H         1.169600        -2.072936        -0.845783
 H         1.475325        -1.858553         0.940308
