19
Iteration:  2222
 C         0.076470         0.306453        -0.164621
 C         1.538724         0.095952        -0.132259
 C         2.379118         1.065477        -0.970566
 C         3.786481         0.736566        -0.326915
 C         3.472885         0.238206         1.019951
 O         2.084043        -0.007667         1.204440
 C         4.048872        -0.695574         0.070559
 O         3.130988        -1.744358        -0.204266
 C         1.989395        -1.241934        -0.830151
 H        -0.080914         0.806592        -1.188001
 H        -0.460631        -0.659550        -0.148176
 H        -0.275284         0.884257         0.657821
 H         2.225867         0.941484        -1.953873
 H         2.167620         2.163884        -0.817363
 H         4.534074         1.522181        -0.326929
 H         4.013359         0.753323         1.856264
 H         5.148008        -1.026481         0.159702
 H         2.027757        -1.063722        -1.873859
 H         1.172453        -2.009594        -0.476372
