19
Iteration:  3380
 C         0.096131         0.302142        -0.187727
 C         1.526713         0.003020        -0.125697
 C         2.322622         0.443836        -1.433829
 C         3.752195         0.367532        -0.821299
 C         3.499379         0.705550         0.617912
 O         2.131005         0.872585         0.786536
 C         4.024804        -0.685438         0.208104
 O         3.273475        -1.867671         0.276137
 C         1.869525        -1.423972         0.254371
 H        -0.239518         1.055192        -0.861838
 H        -0.515205        -0.669597        -0.387431
 H        -0.177599         0.630646         0.851539
 H         2.127928        -0.188739        -2.294685
 H         2.245481         1.496042        -1.653000
 H         4.533929         0.888978        -1.395971
 H         3.974843         1.346753         1.271515
 H         5.023702        -1.061034         0.531243
 H         1.423767        -2.171797        -0.496381
 H         1.457875        -1.586057         1.169190
