19
Iteration:  2732
 C         0.032124         0.278894        -0.282355
 C         1.530229         0.060918        -0.051687
 C         2.491973         0.601248        -1.193421
 C         3.779158         0.710657        -0.480249
 C         3.452896         0.460716         0.931272
 O         2.043007         0.550292         1.203515
 C         4.059738        -0.738066         0.077006
 O         3.256870        -1.716923        -0.399389
 C         1.839682        -1.411467        -0.104164
 H        -0.265925         1.211902         0.250259
 H         0.053936         0.268078        -1.384755
 H        -0.531387        -0.472797         0.167978
 H         2.667666        -0.171122        -2.129041
 H         2.124021         1.462946        -1.636374
 H         4.293180         1.550808        -0.976687
 H         4.007141         0.769544         1.817966
 H         5.076206        -1.256330         0.154217
 H         1.340897        -2.050453        -0.919679
 H         1.624609        -1.830960         0.911778
