19
Iteration:  3860charge 0 multiplicity 1
 C        -0.003704         0.173458        -0.181766
 C         1.518389         0.069953        -0.142216
 C         2.188524         0.127503        -1.436424
 C         3.713758         0.217175        -1.048668
 C         3.729727         0.783070         0.343083
 O         2.301556         1.027961         0.708904
 C         4.090484        -0.712786         0.192513
 O         3.183170        -1.633099         0.736721
 C         1.783430        -1.347412         0.375384
 H        -0.195900        -0.459046        -1.077956
 H        -0.529354        -0.219785         0.753229
 H        -0.386190         1.138782        -0.333900
 H         1.928159        -0.559381        -2.120075
 H         1.862296         1.091650        -1.850207
 H         4.410393         0.352748        -1.894087
 H         4.316060         1.466338         0.916718
 H         5.207307        -0.858063         0.409412
 H         1.666828        -2.026741        -0.462703
 H         1.145015        -1.589081         1.199776
