19
Iteration:  3593charge 0 multiplicity 1
 C        -0.028495         0.250936        -0.141941
 C         1.516980         0.063086        -0.123252
 C         2.340032         0.152618        -1.463395
 C         3.764646         0.316429        -0.986666
 C         3.645963         0.765480         0.587894
 O         2.231370         0.918544         0.818365
 C         4.021837        -0.629174         0.146932
 O         3.184154        -1.683584         0.479803
 C         1.836951        -1.390521         0.255269
 H        -0.338493        -0.093344        -1.174033
 H        -0.372319        -0.465982         0.508330
 H        -0.488695         1.266648         0.099521
 H         1.969516        -0.798460        -1.885767
 H         2.085035         0.976147        -2.117693
 H         4.574592         0.588423        -1.687906
 H         4.278020         1.437918         1.060062
 H         5.109954        -0.929601         0.308730
 H         1.376876        -2.150904        -0.480451
 H         1.407412        -1.551706         1.189347
