19
Iteration:  3643
 C         0.033798         0.358403        -0.174065
 C         1.459004        -0.072494        -0.196338
 C         2.332111         0.373824        -1.539529
 C         3.716373         0.282026        -1.011006
 C         3.589106         0.724442         0.448454
 O         2.183374         0.839335         0.762044
 C         4.039793        -0.660425         0.158597
 O         3.250944        -1.637690         0.689636
 C         1.855675        -1.528622         0.357663
 H        -0.078873         1.224631        -0.838527
 H        -0.748176        -0.497396        -0.260260
 H        -0.080100         0.682226         0.836020
 H         2.248066        -0.397946        -2.371978
 H         1.882944         1.376743        -1.888868
 H         4.570791         0.575440        -1.643253
 H         4.248244         1.435473         0.996728
 H         5.107797        -0.868977         0.202515
 H         1.621831        -2.294991        -0.281948
 H         1.389660        -1.811150         1.386341
