19
Iteration:  3177charge 0 multiplicity 1
 C         0.068555         0.300622        -0.221529
 C         1.508414         0.031277        -0.168796
 C         2.404766         0.438177        -1.310848
 C         3.797205         0.547615        -0.800594
 C         3.544715         0.707845         0.753742
 O         2.156639         0.670385         0.987400
 C         4.051414        -0.610260         0.101604
 O         3.214987        -1.750956         0.160391
 C         1.749380        -1.581067         0.098020
 H         0.027886         1.456575        -0.226515
 H        -0.341176        -0.055042        -1.228665
 H        -0.383512        -0.209129         0.594067
 H         2.410813        -0.228664        -2.135279
 H         2.010987         1.348444        -1.761217
 H         4.568493         1.122549        -1.368186
 H         4.098602         1.142016         1.561641
 H         5.058856        -0.962800         0.362860
 H         1.216738        -2.196860        -0.735652
 H         1.314842        -1.768027         1.037799
