19
Iteration:   826charge 0 multiplicity 1
 C         0.030252         0.371054        -0.154906
 C         1.608507         0.065857        -0.170137
 C         2.494486         1.299389        -0.105851
 C         3.787454         0.758392         0.379897
 C         3.310074        -0.463454         1.280287
 O         1.906776        -0.526721         1.049233
 C         4.021914        -0.678632        -0.029965
 O         3.347254        -1.352609        -1.098029
 C         2.023776        -0.738330        -1.336878
 H        -0.387926        -0.554031        -0.422766
 H        -0.364150         0.789469         0.851312
 H        -0.314366         1.134347        -0.801160
 H         2.484501         1.794916        -1.125469
 H         2.040334         2.036232         0.615474
 H         4.545919         1.447371         0.701699
 H         3.697012        -0.615607         2.272483
 H         5.099872        -1.020168         0.060713
 H         1.918015        -0.317796        -2.383733
 H         1.318530        -1.662050        -1.485628
