19
Iteration:  2202charge 0 multiplicity 1
 C         0.065746         0.329066        -0.196669
 C         1.598351         0.032446        -0.194210
 C         2.414315         1.147044        -0.904454
 C         3.774732         0.798321        -0.325650
 C         3.457122         0.226702         1.123717
 O         2.076857         0.029259         1.214280
 C         4.008353        -0.660648         0.064264
 O         3.221175        -1.775746        -0.306432
 C         1.881573        -1.342234        -0.771524
 H        -0.362725         0.155030        -1.168284
 H        -0.484811        -0.321243         0.472494
 H        -0.181160         1.380571         0.093685
 H         2.393969         0.966771        -1.955859
 H         2.060008         2.177830        -0.825576
 H         4.655836         1.338892        -0.717408
 H         3.969947         0.456647         2.117682
 H         5.120692        -0.935311         0.032797
 H         2.000820        -1.247464        -1.861326
 H         1.075563        -2.051757        -0.376298
