19
Iteration:  1032charge 0 multiplicity 1
 C         0.080781         0.203463        -0.256379
 C         1.570846         0.152784        -0.176466
 C         2.436091         1.410691        -0.129815
 C         3.846423         0.715199         0.136446
 C         3.344707        -0.237723         1.257904
 O         1.964363        -0.426504         1.165287
 C         3.989805        -0.729004        -0.055616
 O         3.218615        -1.552943        -0.933186
 C         2.042978        -0.779069        -1.232863
 H        -0.273732        -0.252312         0.674509
 H        -0.331306         1.352233        -0.164908
 H        -0.305773        -0.330853        -1.174755
 H         2.528865         1.947639        -1.065556
 H         2.143855         2.246019         0.553333
 H         4.783262         1.214635         0.343860
 H         3.696612        -0.374790         2.321100
 H         5.016073        -0.945016        -0.217358
 H         2.256680        -0.288177        -2.201210
 H         1.231976        -1.401997        -1.440807
