19
Iteration:  3227charge 0 multiplicity 1
 C         0.004497         0.298539        -0.146317
 C         1.586108        -0.043366        -0.144119
 C         2.366097         0.517429        -1.323409
 C         3.782653         0.460892        -0.905681
 C         3.549844         0.698864         0.653941
 O         2.177901         0.690974         0.925292
 C         4.012686        -0.641167         0.184185
 O         3.181023        -1.730520         0.394032
 C         1.857269        -1.549417        -0.053918
 H        -0.245959         0.538869         0.856602
 H        -0.063858         1.162924        -0.790628
 H        -0.640633        -0.540305        -0.514133
 H         2.202009         0.045662        -2.352918
 H         1.989241         1.557179        -1.469823
 H         4.693447         0.770318        -1.424625
 H         4.130161         1.472552         1.282486
 H         5.007325        -0.988375         0.370748
 H         1.632328        -1.896100        -1.022603
 H         1.066547        -2.023407         0.670271
