19
Iteration:   944
 C         0.032881         0.527165        -0.204422
 C         1.516520         0.052782        -0.154639
 C         2.582051         1.216285        -0.300008
 C         3.753541         0.683980         0.432538
 C         3.263165        -0.469909         1.233228
 O         1.825521        -0.411955         1.248425
 C         4.060863        -0.667522        -0.096022
 O         3.417468        -1.002840        -1.301796
 C         2.005992        -1.196493        -1.044886
 H        -0.149904         1.636887        -0.258459
 H        -0.375393         0.063725        -1.266977
 H        -0.428431        -0.069641         0.657624
 H         2.985824         1.288445        -1.306821
 H         2.327866         2.186808         0.209197
 H         4.533105         1.393478         0.635955
 H         3.655630        -0.892493         2.195936
 H         5.094424        -1.128119        -0.002743
 H         1.504791        -1.126874        -2.021583
 H         1.797333        -2.116632        -0.526425
