19
Iteration:   688
 C         0.087745         0.234982        -0.160748
 C         1.578129         0.157721        -0.142007
 C         2.544129         1.476321         0.023905
 C         3.735802         0.683862         0.376161
 C         3.250757        -0.489388         1.241547
 O         1.863195        -0.597117         1.044757
 C         3.998799        -0.737141        -0.067203
 O         3.305381        -1.349058        -1.139496
 C         2.154133        -0.644376        -1.378829
 H        -0.391176         1.145671        -0.536914
 H        -0.336001        -0.614595        -0.575118
 H        -0.363527         0.118739         0.869709
 H         2.558224         2.057612        -0.888572
 H         2.251545         2.063507         0.827233
 H         4.617535         1.265634         0.550934
 H         3.542684        -0.522117         2.287504
 H         5.110959        -0.956142         0.029202
 H         2.131331         0.065474        -2.203042
 H         1.402387        -1.336797        -1.710728
