19
Iteration:  1822charge 0 multiplicity 1
 C        -0.012451         0.382288        -0.069477
 C         1.520528         0.039190        -0.270120
 C         2.480299         1.125216        -0.696522
 C         3.828643         0.812542        -0.088239
 C         3.399757         0.039881         1.132378
 O         1.974766        -0.108695         1.182110
 C         4.092241        -0.707717         0.012755
 O         3.225178        -1.706407        -0.486186
 C         2.005279        -1.132457        -1.044063
 H         0.034233         1.252942         0.718748
 H        -0.625429         0.618638        -0.944940
 H        -0.329503        -0.567536         0.486187
 H         2.474627         1.329464        -1.863045
 H         2.066296         2.119701        -0.399728
 H         4.615013         1.625470        -0.129008
 H         3.679637         0.159273         2.228642
 H         5.059549        -1.104788         0.112843
 H         2.220068        -0.766689        -2.008441
 H         1.250955        -1.993952        -1.185035
