19
Iteration:  2601charge 0 multiplicity 1
 C        -0.088683         0.373840        -0.167994
 C         1.540435         0.024488        -0.252524
 C         2.406659         0.929686        -1.149246
 C         3.789391         0.705790        -0.480214
 C         3.541613         0.395479         0.983803
 O         2.068489         0.372212         1.074298
 C         4.136941        -0.669592         0.102047
 O         3.272571        -1.889605        -0.082763
 C         1.869849        -1.511011        -0.402594
 H        -0.738402        -0.568439        -0.066105
 H        -0.171801         0.938094         0.806038
 H        -0.630867         1.049308        -0.887650
 H         2.417339         0.691381        -2.337252
 H         2.105509         1.926345        -0.987355
 H         4.593036         1.398697        -0.808870
 H         4.085782         0.940904         1.775119
 H         5.150659        -0.948389         0.098859
 H         1.698669        -1.663620        -1.394851
 H         1.102742        -2.120257         0.218320
