19
Iteration:  2456charge 0 multiplicity 1
 C         0.088357         0.314567        -0.128777
 C         1.580055         0.040701        -0.178521
 C         2.423316         0.963967        -1.129513
 C         3.742811         0.723775        -0.396775
 C         3.482685         0.443304         0.990827
 O         2.085362         0.175975         1.154683
 C         4.066737        -0.646429         0.101554
 O         3.167018        -1.827749        -0.181567
 C         1.877526        -1.394900        -0.569913
 H        -0.064656         1.080440        -0.921439
 H        -0.580202        -0.540361        -0.435277
 H        -0.252503         0.799206         0.772053
 H         2.379694         0.675754        -2.210699
 H         2.067866         1.983107        -1.062581
 H         4.687782         1.254647        -0.578448
 H         3.868764         0.856700         1.960886
 H         5.153702        -1.040696         0.163541
 H         1.820417        -1.505768        -1.582079
 H         1.161523        -2.125109        -0.059922
