19
Iteration:  1045
 C         0.077065         0.231415        -0.244209
 C         1.587119         0.170164        -0.106774
 C         2.469348         1.409456        -0.190689
 C         3.728444         0.802509         0.167199
 C         3.415615        -0.270277         1.192255
 O         2.009200        -0.455542         1.148831
 C         4.009940        -0.780848        -0.014526
 O         3.165131        -1.568053        -0.845068
 C         2.049588        -0.765953        -1.318761
 H        -0.385232        -0.602402         0.369038
 H        -0.409082         1.339853         0.021125
 H        -0.269942         0.041761        -1.302195
 H         2.329487         1.859372        -1.215409
 H         2.176822         2.072279         0.630188
 H         4.566402         1.522867         0.187417
 H         3.885937        -0.367105         2.129584
 H         4.969145        -1.164999         0.158095
 H         2.351270        -0.042962        -2.077012
 H         1.365233        -1.506964        -1.710487
