19
Iteration:  3584
 C         0.006411         0.268267        -0.141168
 C         1.486977         0.060489        -0.148701
 C         2.300078         0.128763        -1.472331
 C         3.765104         0.335359        -0.928138
 C         3.612534         0.769670         0.593457
 O         2.250048         0.897029         0.766676
 C         4.098092        -0.600941         0.156105
 O         3.215775        -1.712198         0.418318
 C         1.757891        -1.411500         0.332951
 H        -0.441899        -0.140933        -1.031580
 H        -0.458501        -0.237345         0.676050
 H        -0.227937         1.376592        -0.093765
 H         2.373715        -0.740027        -2.111217
 H         1.890262         1.013437        -2.097668
 H         4.501117         0.638555        -1.666572
 H         4.153074         1.387119         1.267441
 H         5.176388        -0.838341         0.362551
 H         1.316455        -2.057824        -0.343636
 H         1.364798        -1.579603         1.256809
