19
Iteration:  4462
 C         0.025888         0.250508        -0.108239
 C         1.522904        -0.067514        -0.153017
 C         2.275568         0.003918        -1.605101
 C         3.698963         0.153793        -1.068287
 C         3.678237         0.833639         0.231431
 O         2.289305         0.954202         0.567038
 C         4.096648        -0.652916         0.210019
 O         3.177967        -1.442949         0.868412
 C         1.737656        -1.352875         0.568124
 H        -0.548547        -0.280453        -0.955924
 H        -0.346283        -0.331767         0.676159
 H        -0.032678         1.344405         0.068562
 H         2.186667        -0.879936        -2.188097
 H         1.907250         0.958765        -2.109870
 H         4.500138         0.463937        -1.763888
 H         4.257636         1.718421         0.454730
 H         5.109055        -1.043741         0.225631
 H         1.330533        -2.325611         0.103511
 H         1.156105        -1.437201         1.512346
