19
Iteration:  2551
 C         0.018161         0.392934        -0.253773
 C         1.547947         0.026122        -0.121384
 C         2.466144         0.719132        -1.131475
 C         3.795156         0.707216        -0.351956
 C         3.453913         0.386732         1.010810
 O         2.042359         0.423610         1.223961
 C         4.097043        -0.684650         0.080853
 O         3.264362        -1.683397        -0.494056
 C         1.836948        -1.515522        -0.250034
 H        -0.632115         0.211681         0.559452
 H        -0.320045         1.281268        -0.701736
 H        -0.350146        -0.436785        -0.938640
 H         2.470108         0.193979        -2.014466
 H         2.236310         1.809523        -1.472839
 H         4.597297         1.391729        -0.630578
 H         4.014553         0.746261         1.896782
 H         5.113352        -1.151870         0.193654
 H         1.260606        -2.002110        -1.172598
 H         1.540145        -1.906323         0.682352
