19
Iteration:  4485
 C         0.053991         0.275202        -0.089889
 C         1.581258        -0.048884        -0.179743
 C         2.314709        -0.042587        -1.591021
 C         3.701211         0.116138        -1.175610
 C         3.571678         0.844635         0.300553
 O         2.225371         1.002234         0.573323
 C         3.954031        -0.590460         0.208415
 O         3.240891        -1.622164         0.830604
 C         1.860545        -1.265147         0.599150
 H        -0.398700         0.330282        -1.098266
 H        -0.495708        -0.524993         0.323264
 H         0.010610         1.271701         0.447913
 H         2.175625        -0.984202        -2.097520
 H         1.867133         0.804327        -2.123697
 H         4.611620         0.155179        -1.858236
 H         4.146439         1.630110         0.679858
 H         5.021093        -0.693189         0.509193
 H         1.173778        -2.052607         0.212315
 H         1.405463        -1.101479         1.565347
