19
Iteration:  3024charge 0 multiplicity 1
 C         0.124698         0.321698        -0.087092
 C         1.559859        -0.027376        -0.215998
 C         2.411951         0.762672        -1.347515
 C         3.811463         0.510631        -0.801912
 C         3.469035         0.631699         0.743932
 O         2.084474         0.558013         0.967177
 C         3.999655        -0.625780         0.183619
 O         3.203039        -1.800294         0.279231
 C         1.859088        -1.584313        -0.197693
 H        -0.263907        -0.347323         0.746447
 H         0.027281         1.384518         0.296578
 H        -0.495273         0.012477        -0.852016
 H         2.217145         0.285719        -2.247958
 H         1.960320         1.798076        -1.087084
 H         4.644759         0.923832        -1.325636
 H         3.923174         1.381666         1.435897
 H         4.991725        -0.956766         0.349000
 H         1.765893        -2.066654        -1.182172
 H         1.220292        -2.046856         0.478865
