19
Iteration:   160
 C         0.139257         0.534315        -0.271270
 C         1.556823         0.115916        -0.071858
 C         2.537241         1.250149         0.271668
 C         3.675755         0.458114         0.797218
 C         3.179075        -0.971961         1.034838
 O         1.797633        -0.936872         0.996945
 C         4.059172        -0.628108        -0.176945
 O         3.472066        -0.483307        -1.427680
 C         2.057411        -0.661832        -1.288713
 H        -0.238155         1.246047         0.559681
 H         0.019429         0.852419        -1.308097
 H        -0.369759        -0.383582        -0.185231
 H         2.938987         1.848994        -0.652803
 H         2.104507         1.873571         1.092797
 H         4.256809         1.040018         1.485830
 H         3.590199        -1.657252         1.800736
 H         5.020320        -0.995953        -0.195143
 H         1.598287        -0.157750        -2.144023
 H         1.723137        -1.753337        -1.261766
