19
Iteration:  1352
 C         0.002836         0.467993        -0.109388
 C         1.566796        -0.051878        -0.224248
 C         2.597399         1.155293        -0.605390
 C         3.796776         0.776190         0.187808
 C         3.280952        -0.220165         1.263071
 O         1.891815        -0.080444         1.228620
 C         4.061043        -0.709674         0.058390
 O         3.357491        -1.230434        -1.127614
 C         1.953956        -1.396507        -0.908271
 H        -0.493036         0.670304        -1.079603
 H        -0.590813        -0.307319         0.299982
 H         0.059757         1.399061         0.378677
 H         2.838154         1.005348        -1.603580
 H         2.131506         2.119718        -0.482888
 H         4.506316         1.560403         0.402732
 H         3.694205        -0.273785         2.230188
 H         5.032503        -1.049778         0.250795
 H         1.427721        -1.728866        -1.791996
 H         1.705492        -2.319079        -0.310359
