19
Iteration:  1586
 C        -0.048954         0.376876        -0.133435
 C         1.555856         0.031097        -0.171450
 C         2.533491         1.217159        -0.607988
 C         3.839140         0.814998         0.061341
 C         3.366182        -0.082760         1.220026
 O         1.939474        -0.067799         1.150782
 C         4.040373        -0.748373         0.040560
 O         3.344291        -1.520112        -0.852195
 C         1.946912        -1.296349        -0.976798
 H        -0.390579         0.089220         0.871714
 H        -0.136454         1.495864        -0.247849
 H        -0.715460        -0.188367        -0.843058
 H         2.722914         1.291353        -1.632032
 H         2.283889         2.252564        -0.230070
 H         4.643969         1.589338         0.059774
 H         3.681166        -0.159194         2.269713
 H         5.047477        -1.070283         0.313124
 H         1.639147        -1.153822        -2.124703
 H         1.307581        -2.145536        -0.541650
