19
Iteration:  4682
 C         0.025532         0.311594        -0.226493
 C         1.511448        -0.008877        -0.092464
 C         2.190658        -0.166381        -1.404261
 C         3.748690         0.058611        -1.142905
 C         3.591123         0.879774         0.162089
 O         2.200015         1.191420         0.491111
 C         4.071842        -0.614204         0.188611
 O         3.297767        -1.629112         0.891511
 C         1.885880        -1.372241         0.706330
 H        -0.632028         0.081663         0.577710
 H        -0.028249         1.378217        -0.165953
 H        -0.337369        -0.058533        -1.264430
 H         1.803617        -1.150327        -1.825087
 H         1.702044         0.558649        -2.142854
 H         4.300740         0.126321        -2.033756
 H         4.365965         1.706945         0.391515
 H         5.104871        -0.843549         0.318032
 H         1.576604        -1.993013        -0.049825
 H         1.306801        -1.473352         1.674359
