19
Iteration:  3367
 C         0.064307         0.255503        -0.158368
 C         1.586550         0.012452        -0.155925
 C         2.431726         0.388873        -1.376114
 C         3.796621         0.398990        -0.855612
 C         3.500154         0.689870         0.605975
 O         2.102581         0.946403         0.843911
 C         4.010395        -0.670602         0.257366
 O         3.198730        -1.816011         0.144717
 C         1.828208        -1.529809         0.307371
 H        -0.199252         0.724156        -1.167789
 H        -0.503529        -0.697640        -0.135551
 H        -0.256757         1.000713         0.707024
 H         2.304447        -0.215329        -2.198755
 H         1.932037         1.385032        -1.683746
 H         4.688925         0.790852        -1.381328
 H         4.235559         1.352473         1.105726
 H         5.059877        -0.728266         0.481404
 H         1.205020        -2.140164        -0.445166
 H         1.518031        -1.728509         1.282879
