19
Iteration:  4339
 C        -0.035538         0.284885        -0.258804
 C         1.565200         0.013478         0.001190
 C         2.259128        -0.078526        -1.413525
 C         3.758635         0.156314        -0.995583
 C         3.549158         0.862006         0.367053
 O         2.214760         1.194092         0.492286
 C         4.024308        -0.639984         0.194305
 O         3.226177        -1.750924         0.464602
 C         1.933589        -1.404725         0.752429
 H        -0.871379        -0.267758         0.403264
 H        -0.113611         1.407237        -0.084039
 H        -0.267105         0.122538        -1.292805
 H         2.304775        -0.897411        -2.118990
 H         1.932821         0.854341        -1.926711
 H         4.377728         0.624360        -1.781990
 H         4.221859         1.483875         0.912297
 H         5.102618        -0.754590         0.506422
 H         1.218423        -2.144272         0.251122
 H         1.809955        -1.457411         1.933342
