19
Iteration:  1776charge 0 multiplicity 1
 C         0.005169         0.305197        -0.273255
 C         1.544666         0.071799        -0.169502
 C         2.529785         1.178268        -0.613530
 C         3.864913         0.773843        -0.016127
 C         3.417243         0.005109         1.157848
 O         1.951319        -0.024440         1.247514
 C         4.074390        -0.711325        -0.003928
 O         3.241362        -1.572591        -0.786726
 C         1.897410        -1.252754        -0.827669
 H        -0.197048         1.347661        -0.725842
 H        -0.313465        -0.467544        -0.974604
 H        -0.423051         0.152046         0.703934
 H         2.452184         1.401639        -1.740174
 H         2.235372         2.093553        -0.198954
 H         4.606727         1.532876         0.005493
 H         4.035031        -0.015450         2.063169
 H         5.071196        -1.186741         0.230413
 H         1.539799        -1.404622        -1.795095
 H         1.324246        -1.992566        -0.121981
