19
Iteration:  3619
 C         0.074478         0.236705        -0.189007
 C         1.504290        -0.036208        -0.151847
 C         2.277459         0.324850        -1.486960
 C         3.720695         0.264192        -0.979658
 C         3.604338         0.841645         0.419354
 O         2.277818         0.881659         0.773632
 C         4.072882        -0.657429         0.197167
 O         3.177383        -1.735279         0.645681
 C         1.786598        -1.435827         0.283027
 H        -0.208543         0.509778        -1.159890
 H        -0.408707        -0.741601         0.190439
 H        -0.219664         0.968382         0.539389
 H         1.834721        -0.208775        -2.317068
 H         2.073705         1.499625        -1.621921
 H         4.502652         0.537703        -1.670236
 H         4.264686         1.647671         0.937260
 H         5.074902        -0.865331         0.450422
 H         1.472492        -2.051579        -0.468480
 H         1.267155        -1.718786         1.195096
