19
Iteration:   483
 C        -0.038715         0.442521        -0.125101
 C         1.543062         0.096257        -0.154199
 C         2.453332         1.338587         0.135904
 C         3.715720         0.686459         0.557518
 C         3.356748        -0.599719         1.165596
 O         1.925583        -0.790686         0.930059
 C         4.115324        -0.623639        -0.072330
 O         3.295863        -1.273486        -1.094126
 C         2.123436        -0.542662        -1.502177
 H        -0.289647         1.458772         0.185240
 H        -0.309299         0.212412        -1.116816
 H        -0.719507        -0.245119         0.652407
 H         2.715082         1.711665        -0.870792
 H         2.048439         2.223604         0.869720
 H         4.511205         1.349478         0.951380
 H         3.661587        -1.066747         2.056741
 H         5.207087        -0.958435        -0.124830
 H         2.436740         0.268108        -2.144712
 H         1.383303        -1.173899        -2.046852
