19
Iteration:  1065charge 0 multiplicity 1
 C         0.015602         0.308017        -0.179174
 C         1.539142         0.113790        -0.180394
 C         2.397328         1.398763        -0.267759
 C         3.819709         0.741482         0.188969
 C         3.394462        -0.248290         1.223736
 O         1.963963        -0.455411         1.140818
 C         4.090314        -0.709767        -0.078197
 O         3.184533        -1.565471        -0.799886
 C         2.094873        -0.815711        -1.293036
 H        -0.512979        -0.632202        -0.199440
 H        -0.078090         0.924344         0.803682
 H        -0.254580         0.930020        -1.074106
 H         2.449599         1.552012        -1.298923
 H         1.899621         2.067922         0.456564
 H         4.696230         1.329314         0.477506
 H         3.672132        -0.415823         2.261154
 H         5.103059        -0.903524        -0.236932
 H         2.474724        -0.156296        -2.113941
 H         1.369891        -1.489659        -1.636934
