19
Iteration:  4865charge 0 multiplicity 1
 C         0.021302         0.267357        -0.062048
 C         1.516563        -0.042400        -0.178926
 C         2.206148        -0.078864        -1.527301
 C         3.691565         0.039063        -1.035476
 C         3.678317         0.898610         0.173498
 O         2.281087         1.203161         0.438656
 C         4.060480        -0.661452         0.242702
 O         3.230218        -1.550623         0.918131
 C         1.811485        -1.433590         0.559313
 H        -0.215651         1.345731         0.276900
 H        -0.365720         0.439425        -1.018549
 H        -0.451004        -0.655388         0.436492
 H         1.956738        -0.974256        -2.018208
 H         1.752510         0.829259        -1.966959
 H         4.330187         0.165190        -1.862791
 H         4.409196         1.694117         0.318390
 H         5.069509        -0.881823         0.499368
 H         1.589869        -2.235377        -0.064705
 H         1.341139        -1.639852         1.518019
