19
Iteration:  2025charge 0 multiplicity 1
 C        -0.010943         0.223619        -0.078182
 C         1.507610         0.108618        -0.208979
 C         2.446049         1.243759        -0.850919
 C         3.835133         0.760971        -0.310429
 C         3.443692         0.093085         1.132610
 O         2.002742        -0.019118         1.191238
 C         4.014875        -0.742803         0.100499
 O         3.218627        -1.763161        -0.385225
 C         2.033606        -1.147272        -0.939919
 H        -0.200753         1.206795        -0.629134
 H        -0.599018        -0.591045        -0.459551
 H        -0.115304         0.375178         0.945992
 H         2.314080         1.237320        -1.897003
 H         2.265900         2.241569        -0.265493
 H         4.784344         1.339788        -0.409414
 H         3.832314         0.423081         2.127334
 H         4.994909        -1.074850         0.249833
 H         2.041083        -0.906574        -1.991842
 H         1.315368        -1.873732        -0.828687
