19
Iteration:  3304charge 0 multiplicity 1
 C         0.069200         0.387066        -0.268552
 C         1.540655        -0.095044        -0.134834
 C         2.332693         0.369836        -1.346506
 C         3.736171         0.510201        -0.802203
 C         3.535290         0.734913         0.648944
 O         2.119172         0.782328         0.906376
 C         4.007455        -0.605943         0.201916
 O         3.274121        -1.835063         0.114593
 C         1.865588        -1.514486         0.303886
 H        -0.597633        -0.329734        -0.634371
 H        -0.223871         0.929283         0.668241
 H        -0.024980         1.153602        -1.031205
 H         2.371509        -0.392271        -2.176381
 H         2.029387         1.345874        -1.689524
 H         4.595875         0.713489        -1.473165
 H         4.132429         1.297578         1.379589
 H         5.023475        -0.974223         0.326011
 H         1.314496        -2.223354        -0.423246
 H         1.463538        -1.745048         1.368034
