19
Iteration:  1047
 C         0.072102         0.247250        -0.233748
 C         1.585403         0.148661        -0.101726
 C         2.452168         1.399562        -0.211631
 C         3.736744         0.816334         0.181940
 C         3.421078        -0.277655         1.194559
 O         2.002736        -0.455977         1.147470
 C         4.011242        -0.784212        -0.024035
 O         3.159679        -1.564308        -0.833436
 C         2.071331        -0.759861        -1.320305
 H        -0.420740        -0.622148         0.320161
 H        -0.434444         1.255158         0.040008
 H        -0.252914         0.136351        -1.282762
 H         2.291893         1.965558        -1.219647
 H         2.221531         2.119659         0.583935
 H         4.591958         1.524281         0.192043
 H         3.891466        -0.346836         2.123129
 H         5.012182        -1.242313         0.111690
 H         2.365481        -0.066284        -2.118456
 H         1.348484        -1.548176        -1.729483
