19
Iteration:  1926
 C         0.104920         0.394030        -0.132141
 C         1.564553         0.017385        -0.192904
 C         2.532995         1.000777        -0.801545
 C         3.822639         0.734729        -0.035910
 C         3.287168         0.029260         1.177055
 O         1.857010         0.135214         1.274077
 C         3.958466        -0.720819         0.000693
 O         3.334171        -1.429539        -0.946750
 C         2.008473        -1.441757        -0.660710
 H        -0.534082        -0.462968        -0.288473
 H        -0.101251         0.788548         0.862239
 H         0.005365         1.200075        -0.829257
 H         2.723028         0.764218        -1.811662
 H         2.157212         2.107290        -0.588012
 H         4.681888         1.406702        -0.027174
 H         3.916777         0.124173         2.136465
 H         4.906697        -1.204159         0.341897
 H         1.439879        -1.796667        -1.595294
 H         1.807081        -2.022856         0.164144
