19
Iteration:  2757
 C         0.023185         0.303434        -0.299422
 C         1.535306        -0.000751        -0.163423
 C         2.445837         0.742083        -1.197872
 C         3.841697         0.626051        -0.535650
 C         3.490774         0.480281         0.971555
 O         2.099031         0.524399         1.125194
 C         4.019888        -0.625808         0.117411
 O         3.226384        -1.736304        -0.325232
 C         1.838957        -1.516883        -0.064253
 H        -0.220998         0.529536         0.733754
 H        -0.161887         0.979088        -1.070355
 H        -0.528714        -0.696248        -0.385876
 H         2.265022         0.183043        -2.232806
 H         1.989345         1.713722        -1.350551
 H         4.633701         1.178776        -0.960856
 H         4.034328         0.911147         1.781826
 H         4.948187        -1.082704         0.396568
 H         1.415226        -2.146006        -0.807178
 H         1.493482        -1.912328         1.028186
