19
Iteration:   462charge 0 multiplicity 1
 C         0.112878         0.301173        -0.117535
 C         1.632501         0.191088        -0.199631
 C         2.468416         1.423632         0.072391
 C         3.730390         0.710134         0.516637
 C         3.241680        -0.636867         1.225431
 O         1.886407        -0.811496         0.917630
 C         4.022660        -0.695358        -0.071970
 O         3.279964        -1.257258        -1.146037
 C         2.160764        -0.474864        -1.403121
 H        -0.236534         1.343277        -0.195610
 H        -0.474127        -0.305322        -0.797100
 H        -0.220025        -0.018300         1.007784
 H         2.369292         2.013110        -0.838067
 H         1.961355         1.968861         0.999287
 H         4.577165         1.284311         0.941280
 H         3.488559        -0.859660         2.227000
 H         5.087160        -1.098565        -0.223970
 H         2.367791         0.417868        -2.008713
 H         1.402437        -1.144856        -1.881589
