19
Iteration:  3658charge 0 multiplicity 1
 C         0.051757         0.374906        -0.116116
 C         1.579063        -0.019247        -0.190164
 C         2.286178         0.145586        -1.562040
 C         3.721841         0.340821        -0.993255
 C         3.539217         0.799232         0.452644
 O         2.192537         0.799924         0.819890
 C         4.089268        -0.620416         0.130333
 O         3.232947        -1.696624         0.662778
 C         1.828994        -1.451397         0.320222
 H        -0.117008         1.405090        -0.593658
 H        -0.494089        -0.241029        -0.761074
 H        -0.376249         0.459669         0.950685
 H         2.020306        -0.643432        -2.317747
 H         2.141452         1.102646        -1.922342
 H         4.504506         0.804122        -1.596018
 H         4.067627         1.598598         0.882310
 H         5.148385        -0.863144         0.397258
 H         1.485280        -2.183940        -0.550438
 H         1.082589        -1.553692         1.181548
