19
Iteration:  3013charge 0 multiplicity 1
 C         0.023676         0.251922        -0.090819
 C         1.554668        -0.007316        -0.251114
 C         2.378007         0.658541        -1.301384
 C         3.798133         0.568082        -0.780449
 C         3.521050         0.605742         0.753635
 O         2.123290         0.555680         0.995701
 C         4.064131        -0.656947         0.145042
 O         3.169772        -1.784551         0.277145
 C         1.871081        -1.497592        -0.195785
 H        -0.287036        -0.019424         0.947382
 H        -0.104895         1.373744        -0.243466
 H        -0.558865        -0.086216        -0.887445
 H         2.177037         0.372067        -2.289207
 H         2.263050         1.806924        -1.497684
 H         4.625248         1.145688        -1.099526
 H         4.113032         1.118670         1.533767
 H         5.066290        -0.874163         0.428536
 H         1.687305        -1.906906        -1.182168
 H         1.220116        -1.978572         0.460825
