19
Iteration:  3293charge 0 multiplicity 1
 C         0.061930         0.393136        -0.255138
 C         1.495943        -0.062510        -0.153988
 C         2.339089         0.422170        -1.302632
 C         3.766160         0.482052        -0.823925
 C         3.532436         0.732538         0.678208
 O         2.166877         0.792129         0.845292
 C         4.024764        -0.663916         0.251055
 O         3.260113        -1.826883         0.185354
 C         1.844774        -1.597420         0.191695
 H        -0.546186        -0.442807        -0.133533
 H        -0.142301         0.925841         0.696251
 H        -0.021702         0.984023        -1.162620
 H         2.093668        -0.176090        -2.250607
 H         1.926797         1.400165        -1.542600
 H         4.566291         0.998455        -1.425276
 H         4.015721         1.645422         1.071359
 H         5.096265        -0.763523         0.286876
 H         1.340564        -2.409139        -0.481146
 H         1.481832        -1.713389         1.308727
