19
Iteration:   308charge 0 multiplicity 1
 C         0.065101         0.319378        -0.196135
 C         1.560064         0.142302        -0.121944
 C         2.537850         1.314419         0.165016
 C         3.768855         0.577673         0.680610
 C         3.287703        -0.759785         1.212317
 O         1.880566        -0.774423         0.943223
 C         4.034024        -0.680334        -0.063681
 O         3.392002        -0.911760        -1.283277
 C         1.961023        -0.501214        -1.461858
 H        -0.171951         1.223380         0.265043
 H        -0.086944         0.381734        -1.251412
 H        -0.547015        -0.577747         0.240393
 H         2.832566         2.001439        -0.570100
 H         1.998688         1.880548         0.965339
 H         4.635152         1.088282         1.055850
 H         3.471412        -1.388850         2.111277
 H         4.999287        -1.046614        -0.171322
 H         2.012358         0.233994        -2.284701
 H         1.336852        -1.424241        -1.647217
