19
Iteration:  2031
 C         0.046421         0.227042        -0.091238
 C         1.572108         0.089921        -0.189734
 C         2.435806         1.229592        -0.817681
 C         3.823697         0.765856        -0.278447
 C         3.397638         0.160442         1.111930
 O         2.027836        -0.055044         1.153894
 C         3.983289        -0.770338         0.113236
 O         3.187721        -1.748026        -0.395016
 C         2.029355        -1.104554        -0.910204
 H        -0.171686         1.227717        -0.397025
 H        -0.615262        -0.578471        -0.516657
 H        -0.332849         0.274543         1.023417
 H         2.345746         1.160287        -1.951794
 H         2.203232         2.246908        -0.578434
 H         4.762658         1.257735        -0.497141
 H         3.869710         0.449486         2.069973
 H         5.072887        -1.073635         0.198116
 H         2.100076        -0.912325        -2.028859
 H         1.272714        -2.035616        -0.841728
