19
Iteration:  3946charge 0 multiplicity 1
 C         0.127727         0.318498        -0.231561
 C         1.564604         0.002015        -0.047065
 C         2.305939        -0.127169        -1.351748
 C         3.727229         0.239039        -1.050557
 C         3.524819         0.845048         0.316512
 O         2.228992         1.033216         0.718381
 C         4.010050        -0.574436         0.211123
 O         3.178897        -1.729286         0.365498
 C         1.835454        -1.307270         0.622333
 H         0.097631         1.403644        -0.422447
 H        -0.368612        -0.149376        -1.159496
 H        -0.431326         0.090633         0.652896
 H         2.297189        -1.233526        -1.512098
 H         1.816350         0.420768        -2.214402
 H         4.442262         0.737631        -1.694422
 H         4.139082         1.695642         0.656490
 H         4.992218        -0.811690         0.693678
 H         1.275358        -2.058579         0.183561
 H         1.487884        -1.324403         1.723779
