19
Iteration:  4827
 C         0.045221         0.340346        -0.128212
 C         1.516007        -0.048218        -0.190986
 C         2.207459        -0.065210        -1.561425
 C         3.661134         0.000267        -1.127447
 C         3.668680         0.845080         0.142829
 O         2.225337         0.990554         0.608315
 C         4.070600        -0.626944         0.190093
 O         3.250644        -1.434625         0.975308
 C         1.839311        -1.337343         0.588751
 H        -0.167309         0.930247         0.715165
 H        -0.398967         0.701264        -1.153032
 H        -0.509609        -0.539337         0.048681
 H         1.878182        -1.075497        -2.066555
 H         2.018654         0.701612        -2.311351
 H         4.579657         0.220835        -1.769960
 H         4.265284         1.718857         0.358257
 H         5.184700        -0.904194         0.321431
 H         1.685507        -2.189512        -0.029414
 H         1.172650        -1.364776         1.480308
