19
Iteration:  2799charge 0 multiplicity 1
 C         0.076266         0.312361        -0.140579
 C         1.553425         0.096099        -0.219323
 C         2.390186         0.778173        -1.289410
 C         3.732868         0.608567        -0.627819
 C         3.526809         0.502930         0.915896
 O         2.087147         0.489233         1.145038
 C         3.993387        -0.661554         0.168774
 O         3.266747        -1.817193        -0.022467
 C         1.890264        -1.506080        -0.301921
 H        -0.453535        -0.455118         0.517480
 H        -0.222843         1.296195         0.227533
 H        -0.476876         0.193858        -1.112496
 H         2.294200         0.108530        -2.320933
 H         2.165296         1.769613        -1.552343
 H         4.576248         1.014663        -1.127576
 H         3.965253         0.969288         1.765261
 H         5.062706        -0.898956         0.279587
 H         1.570903        -1.930018        -1.303566
 H         1.320815        -2.022684         0.484525
