19
Iteration:   921
 C         0.074595         0.301168        -0.260124
 C         1.575118         0.112762        -0.081091
 C         2.521201         1.363169        -0.232579
 C         3.822639         0.725858         0.382699
 C         3.280835        -0.462323         1.207537
 O         1.823089        -0.377798         1.210509
 C         4.019127        -0.779654        -0.062993
 O         3.381581        -1.182532        -1.291981
 C         2.015081        -0.938626        -1.077574
 H        -0.145823         1.333845        -0.702049
 H        -0.397619        -0.488575        -1.024845
 H        -0.373240         0.140233         0.793823
 H         2.752055         1.691689        -1.214358
 H         2.139360         2.124588         0.491255
 H         4.676520         1.319477         0.721540
 H         3.670626        -0.725611         2.167755
 H         4.986253        -1.361633         0.096261
 H         1.571735        -0.769838        -2.061567
 H         1.558486        -1.816500        -0.626210
