19
Iteration:  4166
 C         0.046162         0.473597        -0.171489
 C         1.501708        -0.020573        -0.138615
 C         2.280973        -0.079269        -1.476131
 C         3.647887         0.156591        -1.032079
 C         3.540446         0.818013         0.354568
 O         2.144573         1.024804         0.579373
 C         4.109491        -0.591318         0.242740
 O         3.320631        -1.743914         0.531960
 C         1.875217        -1.384201         0.651950
 H        -0.374130         0.432973         0.902233
 H        -0.055561         1.460859        -0.582596
 H        -0.557981        -0.188774        -0.708637
 H         2.137784        -0.907762        -2.126390
 H         2.113984         0.834947        -2.170974
 H         4.431172         0.498728        -1.780756
 H         4.017430         1.594005         0.867772
 H         5.208015        -0.775413         0.421928
 H         1.390633        -2.352813         0.379202
 H         1.646260        -1.187584         1.723912
