19
Iteration:  1888
 C        -0.017040         0.307820        -0.263293
 C         1.519830         0.035727        -0.175998
 C         2.547760         1.132035        -0.704277
 C         3.841690         0.821909        -0.017165
 C         3.449237         0.010625         1.181235
 O         2.040141         0.020052         1.279001
 C         4.065856        -0.698375        -0.035377
 O         3.229392        -1.535889        -0.712171
 C         1.861265        -1.288730        -0.795621
 H        -0.746417        -0.395518         0.264075
 H        -0.380188         1.360765        -0.122437
 H        -0.360264        -0.008046        -1.323080
 H         2.643720         0.956596        -1.857194
 H         2.198190         2.156195        -0.538859
 H         4.672892         1.563735        -0.044464
 H         3.991425        -0.020113         2.106956
 H         5.002253        -1.187193         0.018576
 H         1.527338        -1.515408        -1.768692
 H         1.336427        -2.153583        -0.205147
