19
Iteration:  1031charge 0 multiplicity 1
 C         0.078351         0.208579        -0.250475
 C         1.572142         0.147298        -0.177292
 C         2.435095         1.409150        -0.136501
 C         3.852338         0.718007         0.143561
 C         3.343099        -0.240739         1.261146
 O         1.955146        -0.423123         1.165319
 C         3.989229        -0.729460        -0.061293
 O         3.221968        -1.548199        -0.937873
 C         2.048793        -0.782220        -1.230918
 H        -0.277426        -0.228024         0.667524
 H        -0.332033         1.299361        -0.199963
 H        -0.322300        -0.328978        -1.149188
 H         2.516456         1.976043        -1.033145
 H         2.165697         2.254395         0.546984
 H         4.792983         1.193699         0.344020
 H         3.698499        -0.367205         2.344946
 H         5.037644        -0.962061        -0.255896
 H         2.239509        -0.304780        -2.215045
 H         1.232198        -1.425840        -1.407935
