19
Iteration:   307charge 0 multiplicity 1
 C         0.060965         0.318603        -0.195295
 C         1.559870         0.150247        -0.118365
 C         2.533410         1.309836         0.170469
 C         3.763820         0.577537         0.682610
 C         3.288172        -0.752384         1.211534
 O         1.883399        -0.781573         0.945742
 C         4.026402        -0.679356        -0.073258
 O         3.389451        -0.922259        -1.283621
 C         1.972151        -0.491748        -1.464079
 H        -0.158104         1.255182         0.223078
 H        -0.076871         0.331437        -1.268631
 H        -0.541142        -0.557513         0.257218
 H         2.858134         2.030253        -0.577832
 H         2.005474         1.899520         0.994009
 H         4.618750         1.073744         1.047600
 H         3.498216        -1.366675         2.081810
 H         5.001315        -1.052322        -0.158177
 H         2.017834         0.232747        -2.272524
 H         1.369485        -1.436163        -1.639484
