19
Iteration:  3944
 C         0.119838         0.330897        -0.235111
 C         1.563768        -0.009503        -0.040546
 C         2.318726        -0.133953        -1.355378
 C         3.737851         0.233343        -1.056740
 C         3.522345         0.853623         0.319549
 O         2.217971         1.045032         0.725863
 C         4.016677        -0.575577         0.217341
 O         3.175876        -1.736293         0.366216
 C         1.842810        -1.301145         0.607138
 H         0.073770         1.366828        -0.420716
 H        -0.370016        -0.157933        -1.121881
 H        -0.427544         0.211382         0.712024
 H         2.318261        -1.293086        -1.524670
 H         1.786565         0.384342        -2.183639
 H         4.407329         0.796266        -1.728519
 H         4.102226         1.649522         0.651514
 H         5.028291        -0.802311         0.666544
 H         1.204246        -2.113501         0.149459
 H         1.535676        -1.370466         1.729623
