19
Iteration:   218charge 0 multiplicity 1
 C         0.084148         0.317887        -0.098188
 C         1.551003         0.181518        -0.140894
 C         2.486530         1.339797         0.253267
 C         3.765571         0.540027         0.743244
 C         3.204646        -0.894129         1.096530
 O         1.813192        -0.866656         0.850674
 C         4.021121        -0.647000        -0.103330
 O         3.459961        -0.867746        -1.333537
 C         2.114311        -0.405312        -1.387122
 H        -0.612412        -0.586985        -0.138014
 H        -0.203405         0.889415         0.846718
 H        -0.180749         0.955693        -1.006512
 H         2.805077         1.909944        -0.692388
 H         2.033833         2.171791         0.860428
 H         4.525920         1.078084         1.345167
 H         3.366621        -1.450086         1.997340
 H         5.141528        -0.934364        -0.216382
 H         1.954165         0.247281        -2.317001
 H         1.489103        -1.385951        -1.477015
