19
Iteration:    78
 C        -0.086013         0.326115        -0.126851
 C         1.564283         0.216875        -0.151567
 C         2.510911         1.319218         0.436662
 C         3.760120         0.515711         0.842855
 C         3.244066        -0.955547         1.057401
 O         1.839496        -0.979947         0.776352
 C         4.049329        -0.598945        -0.129622
 O         3.396425        -0.915411        -1.306176
 C         2.170866        -0.195043        -1.526841
 H        -0.435695        -0.266593        -0.890659
 H        -0.493145        -0.045681         0.833720
 H        -0.359017         1.392151        -0.235211
 H         2.748857         2.036711        -0.293568
 H         2.078036         1.869061         1.269532
 H         4.644676         0.920976         1.403486
 H         3.676831        -1.602152         1.856954
 H         5.173415        -0.871102        -0.191498
 H         2.459830         0.589628        -2.229458
 H         1.580952        -0.903981        -2.034646
