19
Iteration:  3027charge 0 multiplicity 1
 C         0.141618         0.345813        -0.076585
 C         1.559959        -0.039025        -0.208027
 C         2.398901         0.775128        -1.356221
 C         3.798531         0.497335        -0.783107
 C         3.471535         0.643731         0.742359
 O         2.083106         0.562081         0.961907
 C         3.974673        -0.636298         0.204351
 O         3.224349        -1.794903         0.273462
 C         1.856119        -1.615702        -0.209998
 H        -0.221125        -0.417435         0.670194
 H         0.050789         1.282617         0.365367
 H        -0.455297         0.089837        -0.959813
 H         2.240953         0.302863        -2.315091
 H         1.966386         1.807356        -1.096525
 H         4.661719         0.882338        -1.406042
 H         3.912734         1.442249         1.404512
 H         5.033565        -0.919605         0.284905
 H         1.792478        -1.983698        -1.160419
 H         1.102724        -2.050517         0.577900
