19
Iteration:  3240
 C         0.093730         0.226710        -0.117571
 C         1.492555        -0.029598        -0.187611
 C         2.351441         0.483040        -1.449594
 C         3.769948         0.496965        -0.779074
 C         3.636685         0.715883         0.629438
 O         2.213757         0.708436         0.954616
 C         4.065562        -0.662611         0.202311
 O         3.105566        -1.702249         0.391956
 C         1.772809        -1.491883        -0.056935
 H        -0.327111         0.074779         0.894260
 H        -0.295061         1.278878        -0.384071
 H        -0.346300        -0.478132        -0.816925
 H         2.263398        -0.250874        -2.414191
 H         2.090550         1.510576        -1.668552
 H         4.524650         1.006839        -1.428280
 H         4.212923         1.393249         1.282791
 H         5.104156        -0.990950         0.265233
 H         1.710810        -1.943296        -0.983690
 H         1.180249        -2.188741         0.708886
