19
Iteration:  2391charge 0 multiplicity 1
 C         0.065546         0.239359        -0.220194
 C         1.551914         0.062336        -0.109713
 C         2.417826         0.980638        -1.058486
 C         3.842661         0.750742        -0.411321
 C         3.474213         0.343031         1.067478
 O         2.128654         0.240781         1.263214
 C         3.968213        -0.670704         0.115242
 O         3.171094        -1.743121        -0.314419
 C         1.862429        -1.385974        -0.642074
 H        -0.269012        -0.748048        -0.625637
 H        -0.417773         0.502378         0.784432
 H        -0.148317         0.934184        -1.066249
 H         2.457687         0.595706        -2.169617
 H         2.327964         2.000785        -1.149684
 H         4.726091         1.351050        -0.674388
 H         4.070941         0.513854         1.999065
 H         5.003277        -1.096479         0.391988
 H         1.580786        -1.539615        -1.781808
 H         1.096483        -1.951768         0.103739
