19
Iteration:  4010charge 0 multiplicity 1
 C         0.067909         0.224276        -0.118884
 C         1.597331        -0.059793        -0.204049
 C         2.223882         0.111159        -1.518806
 C         3.698993         0.086666        -1.110462
 C         3.628055         0.868981         0.384326
 O         2.271661         1.055985         0.615530
 C         3.979531        -0.577024         0.251002
 O         3.183855        -1.667296         0.728484
 C         1.852471        -1.373993         0.513776
 H        -0.022126         0.881523         0.710658
 H        -0.309868         0.673865        -1.100748
 H        -0.499189        -0.611526         0.263696
 H         1.829456        -0.701851        -2.257533
 H         2.056760         1.101618        -2.005529
 H         4.562457         0.322313        -1.698300
 H         4.316300         1.695439         0.624016
 H         5.040977        -0.924817         0.286549
 H         1.392594        -2.124566        -0.270543
 H         1.192467        -1.510922         1.468842
