19
Iteration:  4646
 C         0.058828         0.325471        -0.113766
 C         1.479660        -0.091951        -0.243205
 C         2.197201        -0.121297        -1.557787
 C         3.721418         0.033092        -1.154058
 C         3.652140         0.883737         0.135851
 O         2.243994         0.874715         0.611285
 C         4.132068        -0.559678         0.177981
 O         3.167071        -1.381131         0.984689
 C         1.834425        -1.303755         0.610667
 H        -0.040058         0.467083         1.084179
 H        -0.002631         1.169620        -0.771349
 H        -0.767949        -0.320716        -0.380509
 H         2.042906        -1.045211        -2.082660
 H         1.972063         0.827981        -2.172391
 H         4.547203         0.114782        -1.927305
 H         4.122350         1.806037         0.300400
 H         5.197016        -0.796728         0.463507
 H         1.567858        -2.265091         0.079906
 H         1.298141        -1.455484         1.493880
