19
Iteration:  4916
 C         0.019105         0.346985        -0.262426
 C         1.497727        -0.074506        -0.090296
 C         2.301562        -0.170474        -1.398919
 C         3.674412         0.100404        -1.064240
 C         3.642796         0.912552         0.181819
 O         2.269156         1.010573         0.566420
 C         4.098166        -0.507278         0.236435
 O         3.196639        -1.661941         0.608885
 C         1.809047        -1.267040         0.802021
 H        -0.075157         1.494689        -0.274075
 H        -0.390886         0.032586        -1.237773
 H        -0.597341        -0.066191         0.487150
 H         2.003005        -1.214371        -1.766718
 H         1.850842         0.563776        -2.131082
 H         4.384355         0.319606        -1.819906
 H         4.273098         1.846165         0.404871
 H         5.084692        -0.850247         0.214906
 H         1.303682        -2.285941         0.442486
 H         1.624204        -1.122527         1.906744
