19
Iteration:  3059charge 0 multiplicity 1
 C        -0.040434         0.342081        -0.185659
 C         1.523494        -0.007480        -0.145514
 C         2.339082         0.540445        -1.293385
 C         3.821912         0.583235        -0.772835
 C         3.537789         0.570816         0.752466
 O         2.132812         0.611883         1.040915
 C         4.102580        -0.687578         0.132886
 O         3.234129        -1.762907         0.236191
 C         1.866598        -1.479348        -0.156471
 H        -0.543067        -0.663612        -0.151611
 H        -0.329142         0.870273         0.697348
 H        -0.271189         0.949503        -1.015586
 H         2.208832        -0.008668        -2.179020
 H         1.980876         1.576886        -1.765931
 H         4.583000         1.239628        -1.286632
 H         4.099313         1.222093         1.467483
 H         5.148325        -0.915314         0.346736
 H         1.687504        -1.808183        -1.147539
 H         1.175789        -2.028419         0.514214
