19
Iteration:  3492charge 0 multiplicity 1
 C         0.053086         0.195853        -0.135996
 C         1.610187        -0.025245        -0.125429
 C         2.350780         0.300311        -1.500040
 C         3.792801         0.368214        -0.931028
 C         3.572810         0.798827         0.587062
 O         2.215486         0.890014         0.826519
 C         3.970682        -0.639396         0.243741
 O         3.122435        -1.743248         0.295986
 C         1.821219        -1.428661         0.312777
 H        -0.488526        -0.434841         0.626758
 H        -0.187602         1.306873         0.094453
 H        -0.272659        -0.026773        -1.130048
 H         2.260234        -0.575520        -2.286985
 H         2.124980         1.209802        -1.936712
 H         4.766129         0.591623        -1.378863
 H         4.180813         1.617893         1.176097
 H         4.978011        -0.916333         0.414669
 H         1.194650        -2.190496        -0.320059
 H         1.400057        -1.392275         1.249000
