19
Iteration:  1199
 C         0.102543         0.378837        -0.202251
 C         1.538691         0.082473        -0.162395
 C         2.490202         1.322727        -0.445360
 C         3.836378         0.783583         0.201932
 C         3.322172        -0.233126         1.254275
 O         1.885971        -0.334086         1.190981
 C         4.034586        -0.710594        -0.032644
 O         3.346167        -1.436772        -1.030870
 C         1.946348        -1.073505        -1.037515
 H        -0.171349         1.037461         0.689310
 H        -0.268378         0.724646        -1.202840
 H        -0.466819        -0.519922         0.079969
 H         2.660458         1.509326        -1.509464
 H         2.055633         2.271682         0.113354
 H         4.696481         1.368072         0.511345
 H         3.650211        -0.448863         2.319214
 H         5.131470        -1.035572         0.130152
 H         1.730289        -0.863043        -2.092076
 H         1.433305        -1.971682        -0.659280
