19
Iteration:  1054charge 0 multiplicity 1
 C         0.050204         0.280368        -0.200305
 C         1.558665         0.082296        -0.115626
 C         2.379362         1.392086        -0.280633
 C         3.803503         0.829828         0.211932
 C         3.419680        -0.280115         1.208818
 O         1.977077        -0.456441         1.150255
 C         4.043064        -0.786375        -0.065503
 O         3.148981        -1.549911        -0.806792
 C         2.131316        -0.767591        -1.315425
 H        -0.489073        -0.616317         0.108323
 H        -0.498777         1.171001         0.383631
 H        -0.142560         0.418265        -1.301468
 H         2.311698         2.030932        -1.123843
 H         2.227606         2.212623         0.459265
 H         4.709981         1.432651         0.317793
 H         3.837134        -0.334286         2.229755
 H         4.975887        -1.257019        -0.159888
 H         2.444843        -0.201749        -2.219550
 H         1.389576        -1.430352        -1.642461
