19
Iteration:  3205charge 0 multiplicity 1
 C         0.052380         0.414247        -0.213123
 C         1.502665         0.060684        -0.211122
 C         2.299394         0.572821        -1.397455
 C         3.672200         0.420181        -0.855370
 C         3.505431         0.636712         0.669293
 O         2.112101         0.677745         0.988923
 C         4.095770        -0.690974         0.221267
 O         3.336785        -1.835232         0.348259
 C         1.903472        -1.537839         0.017533
 H        -0.140163         1.088571         0.574517
 H        -0.193960         0.792407        -1.196473
 H        -0.562883        -0.503208         0.052393
 H         2.121866         0.107057        -2.483915
 H         1.975182         1.642354        -1.530700
 H         4.490783         0.871026        -1.417958
 H         4.109618         1.363980         1.340920
 H         5.141908        -0.908643         0.308177
 H         1.647086        -2.086231        -0.846318
 H         1.276527        -1.993332         0.922334
