19
Iteration:  3833charge 0 multiplicity 1
 C         0.065938         0.329134        -0.102193
 C         1.552554        -0.012342        -0.166474
 C         2.298412         0.173603        -1.492821
 C         3.689370         0.174031        -1.071059
 C         3.623529         0.829004         0.312844
 O         2.214304         0.881245         0.759502
 C         3.990417        -0.624541         0.218515
 O         3.215391        -1.607356         0.743509
 C         1.868380        -1.464642         0.340582
 H        -0.525972        -0.591009        -0.263816
 H        -0.300319         0.902052         0.753109
 H        -0.102387         1.088370        -0.970449
 H         1.964308        -0.750881        -2.238531
 H         1.973770         1.157868        -1.933125
 H         4.497033         0.330011        -1.798504
 H         4.208173         1.694735         0.792185
 H         5.006908        -0.859795         0.120206
 H         1.624376        -2.268672        -0.309523
 H         1.142076        -1.556623         1.222625
