19
Iteration:   409charge 0 multiplicity 1
 C         0.096540         0.403283        -0.256466
 C         1.546551         0.123528        -0.049499
 C         2.524651         1.299783         0.103838
 C         3.728884         0.594917         0.609217
 C         3.280742        -0.712950         1.155870
 O         1.824826        -0.757671         1.094679
 C         4.032248        -0.646024        -0.129885
 O         3.453073        -0.962801        -1.314625
 C         2.001118        -0.612524        -1.318951
 H        -0.217343         0.240743        -1.287446
 H        -0.438788        -0.256304         0.385850
 H        -0.138602         1.459330        -0.186683
 H         2.646133         1.717687        -0.857302
 H         2.191765         2.051563         0.777939
 H         4.544663         1.237384         0.987929
 H         3.620675        -1.274467         1.989958
 H         5.111450        -1.012125        -0.174961
 H         1.630965        -0.113551        -2.270387
 H         1.491185        -1.581799        -1.364265
