19
Iteration:   918charge 0 multiplicity 1
 C         0.067075         0.295679        -0.257192
 C         1.579216         0.106849        -0.096187
 C         2.520041         1.361136        -0.193033
 C         3.810281         0.715436         0.378245
 C         3.302583        -0.433453         1.201209
 O         1.833756        -0.380341         1.191760
 C         4.012406        -0.783072        -0.060832
 O         3.369316        -1.195705        -1.263816
 C         2.024279        -0.929581        -1.087595
 H        -0.142858         1.241888        -0.789961
 H        -0.275171        -0.477391        -0.859617
 H        -0.369574         0.106087         0.723784
 H         2.769024         1.764950        -1.194320
 H         2.211551         2.198006         0.452826
 H         4.673598         1.391543         0.611422
 H         3.613724        -0.781353         2.149892
 H         4.896736        -1.376428         0.111846
 H         1.524924        -0.642534        -2.019665
 H         1.474962        -1.854412        -0.798223
