19
Iteration:  4799charge 0 multiplicity 1
 C         0.095142         0.338121        -0.155925
 C         1.542126        -0.141487        -0.139827
 C         2.220605        -0.148770        -1.506428
 C         3.685085         0.190943        -1.184343
 C         3.680977         0.845349         0.169658
 O         2.265324         0.940232         0.531208
 C         4.033310        -0.574601         0.129062
 O         3.208541        -1.469477         0.913225
 C         1.747555        -1.309667         0.728388
 H        -0.358665         0.675338         0.892639
 H        -0.038767         1.199629        -0.780393
 H        -0.421862        -0.561154        -0.650145
 H         2.172727        -1.089445        -1.971994
 H         1.877975         0.578300        -2.275567
 H         4.448552         0.306255        -1.896423
 H         4.346527         1.645375         0.619857
 H         5.028440        -0.813841         0.415488
 H         1.459159        -2.389914         0.246094
 H         1.271287        -1.094268         1.690278
