19
Iteration:  2711charge 0 multiplicity 1
 C         0.034770         0.336069        -0.234605
 C         1.579906        -0.051276        -0.126416
 C         2.403369         0.674785        -1.193474
 C         3.849027         0.729884        -0.493224
 C         3.455837         0.448531         0.996812
 O         2.089512         0.530538         1.093047
 C         4.000370        -0.612919         0.171242
 O         3.245464        -1.715965        -0.398673
 C         1.806688        -1.593084        -0.134720
 H         0.008772         1.427448        -0.312532
 H        -0.327618        -0.248617        -1.042246
 H        -0.418614         0.186866         0.778137
 H         2.563352         0.251839        -2.297882
 H         2.063475         1.630241        -1.399724
 H         4.771420         1.184759        -0.848775
 H         3.960044         0.910590         1.845583
 H         5.060965        -0.988710         0.291010
 H         1.253302        -2.098620        -0.976554
 H         1.563391        -2.107496         0.897717
