19
Iteration:  1511charge 0 multiplicity 1
 C         0.086065         0.417078        -0.310244
 C         1.501760         0.082918        -0.137804
 C         2.472591         1.234959        -0.548775
 C         3.786709         0.771480         0.052786
 C         3.366334        -0.116655         1.228724
 O         1.914611        -0.129402         1.276405
 C         4.062509        -0.742843        -0.040576
 O         3.353218        -1.485905        -0.994717
 C         1.964573        -1.301029        -0.776746
 H        -0.469026         0.603348         0.517257
 H         0.138672         1.294270        -0.959998
 H        -0.486529        -0.359839        -0.838374
 H         2.601584         1.416234        -1.590641
 H         2.146250         2.096316         0.016977
 H         4.493688         1.603673         0.133069
 H         3.822761        -0.049452         2.193084
 H         5.086895        -0.978972         0.173771
 H         1.380971        -1.523221        -1.737079
 H         1.531491        -2.062674        -0.163206
