19
Iteration:  2028
 C         0.016469         0.219367        -0.085064
 C         1.538235         0.098095        -0.201425
 C         2.439013         1.239984        -0.831454
 C         3.835266         0.768966        -0.297485
 C         3.421537         0.127461         1.128619
 O         2.015270        -0.040211         1.170672
 C         3.990487        -0.762694         0.107353
 O         3.204148        -1.755777        -0.387864
 C         2.034652        -1.117639        -0.917154
 H        -0.145840         1.231845        -0.493160
 H        -0.608136        -0.576785        -0.461225
 H        -0.237109         0.325709         0.972760
 H         2.322445         1.181161        -1.994358
 H         2.242121         2.236049        -0.421033
 H         4.771312         1.277130        -0.458476
 H         3.820803         0.424813         2.033510
 H         5.042149        -1.075941         0.225353
 H         2.043935        -0.900485        -2.050546
 H         1.345057        -1.928290        -0.842032
