19
Iteration:  3397charge 0 multiplicity 1
 C        -0.026431         0.307700        -0.179392
 C         1.543614         0.004135        -0.242574
 C         2.353957         0.409098        -1.476648
 C         3.758390         0.410668        -0.905756
 C         3.592902         0.675035         0.664223
 O         2.165062         0.805779         0.902282
 C         4.076165        -0.637971         0.196042
 O         3.230676        -1.789039         0.406327
 C         1.821547        -1.480501         0.169980
 H        -0.059574         1.409337        -0.468013
 H        -0.575465        -0.342623        -0.782553
 H        -0.431352         0.085140         0.847135
 H         2.186497        -0.344444        -2.275015
 H         1.888082         1.428667        -1.773053
 H         4.601520         0.719175        -1.530702
 H         4.277217         1.424918         1.226070
 H         5.129090        -0.751048         0.246837
 H         1.377819        -2.206450        -0.488094
 H         1.257265        -1.577984         1.235251
