19
Iteration:  2804charge 0 multiplicity 1
 C         0.045508         0.288234        -0.127233
 C         1.536193         0.096956        -0.192449
 C         2.421590         0.733104        -1.305560
 C         3.710527         0.590351        -0.627449
 C         3.543015         0.494735         0.889403
 O         2.084129         0.473559         1.159179
 C         4.011662        -0.617428         0.194098
 O         3.238239        -1.802404        -0.003824
 C         1.902537        -1.467958        -0.343299
 H        -0.446782        -0.531572         0.332182
 H        -0.084079         1.306846         0.292276
 H        -0.356172         0.326302        -1.166460
 H         2.277492         0.171488        -2.132590
 H         2.131942         1.808151        -1.624151
 H         4.598550         0.937871        -1.210608
 H         4.092210         0.938855         1.758980
 H         5.065483        -0.871096         0.151137
 H         1.663536        -1.878141        -1.311140
 H         1.267143        -2.000316         0.463233
