19
Iteration:  4245
 C         0.093123         0.336972        -0.058598
 C         1.565722         0.057703        -0.231525
 C         2.219570         0.204341        -1.569517
 C         3.660756        -0.029123        -1.073753
 C         3.575842         0.845986         0.317034
 O         2.184684         0.973055         0.636576
 C         4.006421        -0.584465         0.239232
 O         3.265862        -1.670563         0.863241
 C         1.915776        -1.455432         0.365545
 H        -0.151167         1.012218         0.689812
 H        -0.289357         0.624524        -0.951744
 H        -0.407258        -0.646384         0.211080
 H         1.785927        -0.666212        -2.069377
 H         2.172098         1.148325        -2.164427
 H         4.511740         0.293038        -1.624672
 H         4.135542         1.799654         0.568846
 H         5.068608        -0.788146         0.433197
 H         1.749274        -2.304346        -0.295506
 H         1.193922        -1.443852         1.235109
