19
Iteration:  1855
 C         0.115712         0.403086        -0.197593
 C         1.578106         0.058913        -0.209585
 C         2.395099         1.305015        -0.665764
 C         3.707717         0.805539        -0.185968
 C         3.381022         0.110815         1.137205
 O         2.047125        -0.176368         1.278217
 C         4.010191        -0.776351         0.049176
 O         3.247863        -1.741972        -0.559232
 C         2.006048        -1.210061        -0.977022
 H        -0.176953         0.468570         0.923816
 H        -0.113276         1.366068        -0.705567
 H        -0.378215        -0.438732        -0.796700
 H         2.220483         1.316988        -1.835316
 H         2.073601         2.200196        -0.123496
 H         4.563590         1.544877        -0.220658
 H         3.918884         0.360435         2.091338
 H         5.006649        -1.062121         0.163917
 H         2.035145        -1.163953        -2.003532
 H         1.221599        -1.925646        -0.530696
