19
Iteration:  1811charge 0 multiplicity 1
 C         0.082611         0.299565        -0.050661
 C         1.552224         0.109956        -0.201092
 C         2.478738         1.206918        -0.771245
 C         3.780723         0.802843        -0.058228
 C         3.376667         0.043168         1.165846
 O         1.994928        -0.134084         1.185397
 C         4.055768        -0.705579         0.061233
 O         3.173258        -1.668015        -0.548174
 C         2.002475        -1.167810        -1.081359
 H        -0.169011         1.391610         0.286694
 H        -0.440823         0.231106        -1.017328
 H        -0.480272        -0.359506         0.662368
 H         2.647388         1.041634        -1.915166
 H         2.253888         2.216928        -0.386336
 H         4.660506         1.498670        -0.007153
 H         3.956200         0.121928         2.144661
 H         5.051851        -1.068246         0.137303
 H         2.059527        -0.956649        -2.130503
 H         1.232657        -2.010237        -0.872566
