19
Iteration:   869
 C         0.068751         0.443684        -0.106583
 C         1.548337         0.158438        -0.111189
 C         2.400972         1.308482        -0.151389
 C         3.703978         0.782433         0.296106
 C         3.283111        -0.390992         1.173166
 O         1.980417        -0.653287         1.001418
 C         4.007561        -0.643061        -0.037475
 O         3.330569        -1.485476        -0.930974
 C         2.116105        -0.755486        -1.329509
 H        -0.214475         0.367442        -1.115673
 H        -0.344969        -0.221387         0.747027
 H        -0.010878         1.394212         0.379852
 H         2.401656         1.740000        -1.172154
 H         2.011377         2.176561         0.442552
 H         4.558265         1.313377         0.627965
 H         3.597841        -0.717545         2.163014
 H         5.129717        -0.813054        -0.059851
 H         2.453220        -0.153439        -2.235624
 H         1.311307        -1.381779        -1.845915
