19
Iteration:  1892charge 0 multiplicity 1
 C        -0.026681         0.312367        -0.262143
 C         1.530272         0.084583        -0.185493
 C         2.540137         1.107561        -0.740628
 C         3.847850         0.809532        -0.006974
 C         3.457909         0.001562         1.169643
 O         2.020296         0.026189         1.301907
 C         4.048513        -0.702513         0.008474
 O         3.256205        -1.524852        -0.774088
 C         1.852827        -1.335186        -0.762905
 H        -0.571283        -0.465460         0.203277
 H        -0.436769         1.305503         0.041820
 H        -0.354214         0.116064        -1.322832
 H         2.640601         1.030659        -1.788412
 H         2.138445         2.217396        -0.647858
 H         4.638277         1.512947         0.032061
 H         4.037883         0.088980         2.072028
 H         5.037149        -1.250022         0.129657
 H         1.443526        -1.490651        -1.788452
 H         1.412914        -2.066955        -0.145400
