19
Iteration:   986charge 0 multiplicity 1
 C         0.073122         0.492622        -0.129119
 C         1.576556         0.055703        -0.116686
 C         2.553784         1.240080        -0.401080
 C         3.735499         0.756186         0.384598
 C         3.311071        -0.376537         1.275874
 O         1.835571        -0.524313         1.158655
 C         4.046243        -0.665176        -0.030100
 O         3.383964        -1.201135        -1.172094
 C         1.994255        -1.049356        -1.135047
 H        -0.092284         0.982504         0.840298
 H        -0.083654         1.316248        -0.870225
 H        -0.588919        -0.387058        -0.332418
 H         2.631428         1.457733        -1.456845
 H         2.033381         2.171730        -0.052879
 H         4.564805         1.439030         0.459177
 H         3.667308        -0.534227         2.322406
 H         5.126283        -1.043041         0.012786
 H         1.626879        -0.902488        -2.163516
 H         1.532440        -1.994795        -0.870201
