19
Iteration:  4325charge 0 multiplicity 1
 C         0.040362         0.323062        -0.276235
 C         1.474764        -0.063559        -0.060624
 C         2.297598        -0.001651        -1.391765
 C         3.710756         0.224814        -1.024879
 C         3.599402         0.809020         0.312269
 O         2.159479         1.055688         0.586251
 C         4.072345        -0.606944         0.226244
 O         3.261377        -1.738978         0.453647
 C         1.871969        -1.317565         0.762702
 H        -0.587528         0.002603         0.470988
 H        -0.085345         1.417359        -0.399008
 H        -0.234453        -0.103802        -1.188099
 H         2.041167        -0.984916        -1.891407
 H         1.920917         0.805598        -1.988937
 H         4.563586         0.342975        -1.741609
 H         4.190049         1.622235         0.657000
 H         5.125861        -0.899147         0.373617
 H         1.310454        -2.187091         0.477432
 H         1.638601        -1.107740         1.898198
