19
Iteration:  2441charge 0 multiplicity 1
 C         0.081182         0.382321        -0.153546
 C         1.566971         0.017053        -0.259296
 C         2.405086         1.045365        -1.042532
 C         3.813298         0.779122        -0.530364
 C         3.443655         0.379411         0.991159
 O         2.076922         0.134017         1.131308
 C         3.993805        -0.715781         0.184097
 O         3.237699        -1.815034        -0.101639
 C         1.874339        -1.456369        -0.615859
 H        -0.415822         0.789536        -1.001560
 H        -0.332752        -0.481978         0.267300
 H         0.072166         1.075780         0.744688
 H         2.231564         0.940182        -2.075612
 H         2.068843         2.152678        -0.709155
 H         4.598647         1.441251        -0.911950
 H         3.977432         0.878580         1.775771
 H         4.998555        -0.967767         0.351376
 H         1.842965        -1.659349        -1.771809
 H         1.203661        -2.101619        -0.147692
