19
Iteration:  2007
 C        -0.025929         0.315796        -0.140136
 C         1.555762         0.094088        -0.219362
 C         2.448011         1.193335        -0.683136
 C         3.795649         0.744973        -0.205731
 C         3.418903         0.119712         1.124764
 O         2.014233         0.095724         1.201507
 C         4.083467        -0.735729         0.022156
 O         3.249315        -1.761963        -0.459749
 C         1.964191        -1.302261        -0.942099
 H        -0.542573         0.895196        -0.926180
 H        -0.393479        -0.707146         0.028469
 H        -0.462731         0.805142         0.786366
 H         2.445994         1.394903        -1.860986
 H         2.217766         2.104202        -0.228393
 H         4.616696         1.429767        -0.312638
 H         3.915576         0.281003         1.999736
 H         5.173084        -0.988777         0.038692
 H         2.055210        -1.142273        -2.121718
 H         1.294970        -2.224887        -0.873312
