19
Iteration:  1506charge 0 multiplicity 1
 C         0.106724         0.397740        -0.267709
 C         1.540659         0.099672        -0.144640
 C         2.437336         1.253312        -0.573274
 C         3.778568         0.778330         0.057425
 C         3.341968        -0.115854         1.199579
 O         1.939042        -0.167312         1.248884
 C         4.040652        -0.707869         0.001633
 O         3.365183        -1.540121        -0.969433
 C         1.921185        -1.238157        -0.822445
 H        -0.492302         0.696167         0.732150
 H         0.090745         1.186754        -1.042812
 H        -0.331669        -0.429074        -0.852749
 H         2.623553         1.533722        -1.669134
 H         2.184650         2.193035         0.013696
 H         4.582779         1.513583         0.131800
 H         3.755130        -0.083506         2.235805
 H         5.105656        -1.037573         0.227505
 H         1.489368        -1.505714        -1.788329
 H         1.536357        -2.010387        -0.007414
