19
Iteration:  4290
 C         0.058406         0.333192        -0.163801
 C         1.552543        -0.011306        -0.121775
 C         2.324794        -0.064716        -1.537902
 C         3.715314         0.304459        -1.068763
 C         3.588076         0.808304         0.344269
 O         2.241223         0.936377         0.700613
 C         4.060766        -0.611912         0.177867
 O         3.199772        -1.581355         0.642948
 C         1.736696        -1.365749         0.547155
 H        -0.243941         0.600627         0.752034
 H        -0.185661         1.074473        -0.856483
 H        -0.546185        -0.610410        -0.320062
 H         2.356128        -1.141518        -1.866593
 H         1.870643         0.536540        -2.329376
 H         4.549597         0.378586        -1.722402
 H         4.245906         1.695589         0.659736
 H         5.082696        -0.871321         0.227338
 H         1.304371        -2.229371         0.056115
 H         1.494749        -1.432306         1.664552
