19
Iteration:  4291charge 0 multiplicity 1
 C         0.064946         0.330008        -0.163947
 C         1.551583        -0.019110        -0.127222
 C         2.327965        -0.066040        -1.549442
 C         3.704410         0.302517        -1.068270
 C         3.587144         0.805593         0.341881
 O         2.239342         0.933309         0.712469
 C         4.051963        -0.608063         0.180313
 O         3.200449        -1.583703         0.635213
 C         1.742964        -1.345588         0.556749
 H        -0.245356         0.576858         0.754533
 H        -0.193759         1.098906        -0.875658
 H        -0.514039        -0.588060        -0.357831
 H         2.343546        -1.160939        -1.865838
 H         1.898064         0.539571        -2.328358
 H         4.568080         0.385733        -1.721728
 H         4.251307         1.663024         0.665420
 H         5.078906        -0.875671         0.227889
 H         1.337760        -2.206376         0.076031
 H         1.489839        -1.430150         1.708271
