19
Iteration:  3675
 C         0.119572         0.355396        -0.153903
 C         1.498692        -0.052149        -0.131418
 C         2.295511         0.106191        -1.429245
 C         3.688428         0.297361        -0.983707
 C         3.613321         0.826026         0.422072
 O         2.249276         0.852230         0.823196
 C         4.041495        -0.558067         0.271151
 O         3.193895        -1.626273         0.484046
 C         1.779199        -1.450251         0.277758
 H        -0.033874         1.426166        -0.143761
 H        -0.463184        -0.077083        -1.073732
 H        -0.306496        -0.050212         0.714501
 H         2.220888        -0.932937        -1.832850
 H         1.889645         0.732598        -2.348521
 H         4.503440         0.542612        -1.686443
 H         4.205247         1.647849         0.885034
 H         5.066891        -0.911172         0.411996
 H         1.445996        -2.115900        -0.467202
 H         1.369696        -1.788029         1.242485
