19
Iteration:  1371charge 0 multiplicity 1
 C         0.093095         0.400760        -0.212161
 C         1.523638         0.067724        -0.088462
 C         2.488405         1.107171        -0.655532
 C         3.823474         0.792915         0.167877
 C         3.306443        -0.143707         1.216910
 O         1.883048        -0.197097         1.273013
 C         4.040486        -0.720800        -0.012964
 O         3.389212        -1.347964        -1.058862
 C         1.956455        -1.198294        -0.845724
 H        -0.176761         1.012924        -1.069125
 H        -0.634169        -0.529585        -0.280188
 H        -0.249771         1.095302         0.620447
 H         2.685999         1.048176        -1.780570
 H         2.176323         2.053876        -0.326965
 H         4.604610         1.513079         0.217921
 H         3.755334        -0.253120         2.187026
 H         5.065343        -1.151778         0.161888
 H         1.503408        -1.269679        -1.820084
 H         1.547964        -2.116265        -0.315810
