19
Iteration:  4886charge 0 multiplicity 1
 C         0.043198         0.284049        -0.098380
 C         1.545958        -0.029373        -0.163514
 C         2.299105        -0.092463        -1.591252
 C         3.710079         0.082654        -1.173031
 C         3.619114         0.782039         0.215277
 O         2.211891         1.001708         0.525503
 C         4.007474        -0.579004         0.199106
 O         3.234253        -1.566373         0.875776
 C         1.839479        -1.228063         0.682511
 H        -0.067481         1.416143         0.251713
 H        -0.454583         0.349027        -1.018630
 H        -0.413874        -0.492109         0.579687
 H         2.030577        -1.101901        -1.838833
 H         1.917916         0.677680        -2.322039
 H         4.534407         0.326118        -1.777178
 H         4.183958         1.595171         0.678124
 H         5.044076        -0.794616         0.245670
 H         1.428378        -2.037320         0.168563
 H         1.311764        -1.157415         1.648705
