19
Iteration:  4499charge 0 multiplicity 1
 C         0.035885         0.316455        -0.183505
 C         1.503905         0.005634        -0.121068
 C         2.240417        -0.095193        -1.509363
 C         3.711087         0.074553        -1.014977
 C         3.573626         0.845889         0.227532
 O         2.192513         1.111059         0.518826
 C         4.107631        -0.585169         0.272658
 O         3.289914        -1.681684         0.690874
 C         1.827147        -1.333111         0.687584
 H        -0.249171         0.687605        -1.128601
 H        -0.638853        -0.537438         0.199541
 H        -0.231727         1.161334         0.536168
 H         2.013783        -1.026778        -2.088839
 H         2.033878         0.725321        -2.132418
 H         4.461199         0.379470        -1.770021
 H         4.222098         1.698941         0.492848
 H         5.187046        -0.812591         0.343796
 H         1.458104        -2.221862         0.090579
 H         1.453925        -1.288468         1.680181
