19
Iteration:  3815
 C         0.071173         0.435216        -0.126097
 C         1.493268        -0.158922        -0.170602
 C         2.249195         0.137657        -1.539515
 C         3.703778         0.249719        -1.052525
 C         3.573644         0.821624         0.395222
 O         2.253814         0.810655         0.664198
 C         4.134930        -0.550706         0.218873
 O         3.213586        -1.617858         0.698934
 C         1.767228        -1.506403         0.416796
 H        -0.642978        -0.231916         0.298952
 H         0.299005         1.242923         0.679202
 H        -0.333635         0.955520        -0.981699
 H         2.060226        -0.535612        -2.281187
 H         2.033977         1.072758        -2.035260
 H         4.578799         0.623882        -1.653654
 H         4.067884         1.664076         0.757395
 H         5.171952        -0.743127         0.611245
 H         1.475298        -2.262652        -0.421769
 H         1.315538        -1.637858         1.396820
