19
Iteration:  1213
 C         0.083556         0.348510        -0.123914
 C         1.612178         0.099058        -0.170109
 C         2.521776         1.263463        -0.470660
 C         3.749902         0.795025         0.195434
 C         3.333643        -0.203582         1.258791
 O         1.913402        -0.368701         1.171748
 C         4.037450        -0.711904         0.052561
 O         3.322435        -1.464551        -0.915880
 C         1.935638        -1.021791        -1.179511
 H        -0.125496         0.827486         0.893990
 H        -0.277231         1.127184        -0.762273
 H        -0.416535        -0.611596        -0.383072
 H         2.520365         1.438299        -1.546654
 H         2.183391         2.175170        -0.144432
 H         4.586344         1.470437         0.092184
 H         3.748404        -0.121540         2.261738
 H         5.053768        -1.081943        -0.006258
 H         1.852282        -0.592188        -2.134169
 H         1.228896        -1.787856        -1.251053
