19
Iteration:   563charge 0 multiplicity 1
 C         0.058391         0.414093        -0.210649
 C         1.522927         0.058739        -0.059095
 C         2.625150         1.208240        -0.177774
 C         3.803069         0.600045         0.653042
 C         3.215143        -0.668377         1.166187
 O         1.806847        -0.605421         1.117865
 C         4.060121        -0.743280        -0.080236
 O         3.422089        -0.690569        -1.368417
 C         2.027089        -0.893670        -1.202756
 H        -0.637300        -0.039284         0.560078
 H        -0.401044         1.468096        -0.092101
 H        -0.254845         0.099653        -1.173951
 H         2.797704         1.453693        -1.232222
 H         2.288212         2.187631         0.309570
 H         4.520373         1.105922         1.293045
 H         3.440979        -1.088618         2.215290
 H         4.967613        -1.267057        -0.147291
 H         1.526875        -0.708165        -2.187202
 H         1.765328        -1.830474        -0.756029
