19
Iteration:  2610charge 0 multiplicity 1
 C        -0.124243         0.355388        -0.155562
 C         1.552042         0.009105        -0.285208
 C         2.390056         0.972305        -1.105374
 C         3.772891         0.702882        -0.552477
 C         3.525629         0.360979         0.933345
 O         2.108393         0.364571         1.094806
 C         4.059921        -0.700633         0.120995
 O         3.286288        -1.853960        -0.017188
 C         1.918345        -1.431955        -0.441407
 H        -0.730759        -0.573006        -0.332154
 H        -0.198549         0.696487         0.931566
 H        -0.264098         1.097878        -0.829753
 H         2.283936         0.596885        -2.219067
 H         2.146210         1.975637        -0.941269
 H         4.736578         1.112498        -0.860959
 H         3.968300         0.878001         1.778924
 H         5.067849        -0.971079         0.196141
 H         1.722637        -1.824925        -1.484447
 H         1.239633        -2.019920         0.228443
