19
Iteration:  3391charge 0 multiplicity 1
 C         0.001780         0.293594        -0.158734
 C         1.549677         0.029480        -0.266694
 C         2.299477         0.401609        -1.447065
 C         3.769474         0.390353        -0.891406
 C         3.571182         0.706717         0.697788
 O         2.153063         0.831076         0.864222
 C         4.077236        -0.654076         0.191612
 O         3.244004        -1.848713         0.379995
 C         1.849847        -1.458710         0.199059
 H        -0.118294         1.256035        -0.647592
 H        -0.613395        -0.435971        -0.812094
 H        -0.354328         0.397692         0.901081
 H         2.090945        -0.198807        -2.333790
 H         1.999189         1.415947        -1.736805
 H         4.614532         0.807102        -1.462035
 H         4.139783         1.369311         1.254170
 H         5.190446        -0.790266         0.319819
 H         1.277087        -2.169990        -0.514474
 H         1.421539        -1.508569         1.115769
