19
Iteration:  1611
 C         0.116454         0.343701        -0.173835
 C         1.618222         0.085498        -0.204906
 C         2.430231         1.237917        -0.597045
 C         3.748356         0.800893        -0.092924
 C         3.384349         0.010083         1.231669
 O         1.954926        -0.233991         1.252807
 C         4.047812        -0.713668         0.018630
 O         3.243466        -1.693830        -0.647172
 C         1.974284        -1.101208        -1.066186
 H        -0.354140        -0.196789         0.602496
 H        -0.083877         1.446041         0.012423
 H        -0.334895         0.021204        -1.114876
 H         2.331819         1.541060        -1.669403
 H         2.221034         2.152695        -0.084521
 H         4.539397         1.616637        -0.196023
 H         3.844989         0.129935         2.256300
 H         5.064018        -0.992188         0.190283
 H         2.065112        -0.664075        -2.232075
 H         1.112132        -1.835257        -0.967867
