19
Iteration:   994charge 0 multiplicity 1
 C         0.033668         0.451589        -0.151725
 C         1.552864         0.058811        -0.162573
 C         2.495417         1.275442        -0.360885
 C         3.804980         0.795007         0.376448
 C         3.307976        -0.379332         1.276786
 O         1.884312        -0.476600         1.149241
 C         4.022651        -0.680395        -0.044459
 O         3.407045        -1.298404        -1.128919
 C         1.985204        -0.984116        -1.163129
 H        -0.166344         0.705257         0.901954
 H        -0.092284         1.266269        -0.710193
 H        -0.655794        -0.323044        -0.406558
 H         2.569656         1.286728        -1.477698
 H         2.136404         2.156621         0.138351
 H         4.708476         1.399364         0.609391
 H         3.614461        -0.625104         2.255665
 H         5.083124        -1.003761        -0.059899
 H         1.654765        -0.625447        -2.157090
 H         1.471021        -1.939432        -0.812049
