19
Iteration:   526
 C         0.125072         0.410656        -0.212909
 C         1.576722         0.118166        -0.066369
 C         2.496908         1.335116         0.085108
 C         3.817761         0.695273         0.558896
 C         3.208652        -0.674842         1.200836
 O         1.830773        -0.640386         1.063029
 C         3.986245        -0.699681        -0.114878
 O         3.427722        -1.004072        -1.374069
 C         2.027747        -0.802530        -1.286765
 H        -0.343250         0.539156         0.739683
 H         0.099960         1.171388        -0.916099
 H        -0.319601        -0.579556        -0.607000
 H         2.563145         1.911272        -0.856478
 H         2.081487         1.988990         0.921814
 H         4.571334         1.344699         1.026192
 H         3.473166        -0.941844         2.179987
 H         5.025845        -1.145165        -0.084828
 H         1.733870        -0.410096        -2.222725
 H         1.526049        -1.808405        -1.327283
