19
Iteration:  2588charge 0 multiplicity 1
 C         0.072790         0.362357        -0.145412
 C         1.503336         0.027994        -0.161536
 C         2.457460         0.837195        -1.148852
 C         3.798665         0.720151        -0.463500
 C         3.458554         0.482593         0.965217
 O         2.059742         0.367863         1.123539
 C         4.074568        -0.697467         0.069052
 O         3.241902        -1.792320        -0.193268
 C         1.828051        -1.528959        -0.418665
 H        -0.460249        -0.551325         0.209279
 H        -0.149621         1.209965         0.581297
 H        -0.183973         0.599324        -1.116728
 H         2.448799         0.483108        -2.261706
 H         2.171490         1.859014        -1.124159
 H         4.601586         1.414833        -0.723495
 H         3.861508         0.845363         1.893597
 H         5.072683        -1.033550         0.260718
 H         1.571550        -1.922234        -1.391531
 H         1.337694        -2.201667         0.310430
