19
Iteration:  4925charge 0 multiplicity 1
 C         0.006217         0.353085        -0.282895
 C         1.534584         0.008819        -0.037673
 C         2.226693        -0.194962        -1.372645
 C         3.734343         0.132395        -1.086963
 C         3.586685         0.918869         0.220305
 O         2.246527         1.068798         0.540383
 C         4.052573        -0.601906         0.222142
 O         3.259630        -1.671021         0.582534
 C         1.834384        -1.308283         0.817813
 H         0.012413         1.412623        -0.390775
 H        -0.269524        -0.217883        -1.231754
 H        -0.716115         0.191431         0.443090
 H         2.238557        -1.278261        -1.738287
 H         1.696113         0.391612        -2.117115
 H         4.444594         0.291476        -1.922761
 H         4.325261         1.724886         0.525113
 H         5.105993        -0.841179         0.350934
 H         1.140951        -2.130584         0.337142
 H         1.643954        -1.217919         1.900680
