19
Iteration:  1983charge 0 multiplicity 1
 C         0.145672         0.306665        -0.238453
 C         1.621606         0.031212        -0.128584
 C         2.418833         1.198010        -0.817521
 C         3.783591         0.833552        -0.207181
 C         3.425839         0.096515         1.211401
 O         2.022375        -0.057068         1.274228
 C         4.027911        -0.658659         0.071961
 O         3.232565        -1.701455        -0.636429
 C         1.837523        -1.282515        -0.791098
 H        -0.170428         0.292295        -1.325646
 H        -0.457614        -0.306962         0.395501
 H        -0.073809         1.289260         0.038523
 H         2.376879         1.187857        -1.955761
 H         2.099327         2.189525        -0.432608
 H         4.618169         1.565746        -0.255650
 H         3.953407         0.187793         2.177589
 H         5.012179        -0.995997         0.221811
 H         1.662366        -1.211964        -1.948788
 H         1.187396        -2.016020        -0.451479
