19
Iteration:   434charge 0 multiplicity 1
 C        -0.033944         0.296733        -0.113103
 C         1.577709         0.159193        -0.142192
 C         2.493217         1.378799         0.176171
 C         3.806092         0.640528         0.576089
 C         3.261174        -0.624456         1.195546
 O         1.854598        -0.653187         1.016550
 C         4.034726        -0.732043        -0.088779
 O         3.425346        -1.170549        -1.285280
 C         2.111510        -0.555977        -1.481929
 H        -0.248021         0.931458        -1.010289
 H        -0.507594        -0.730382        -0.201439
 H        -0.406768         0.934328         0.598714
 H         2.422069         2.094780        -0.660066
 H         2.111071         1.778105         1.060994
 H         4.569273         1.225801         1.016745
 H         3.523078        -1.045323         2.165243
 H         4.981545        -1.231042        -0.127007
 H         2.053223         0.161301        -2.348573
 H         1.438099        -1.355115        -1.810792
