19
Iteration:  4369
 C         0.039922         0.194946        -0.115266
 C         1.589125         0.041314        -0.175838
 C         2.324740        -0.087475        -1.526659
 C         3.720477         0.155902        -0.978377
 C         3.574669         0.874781         0.289643
 O         2.211211         1.011559         0.620998
 C         4.027300        -0.604711         0.255364
 O         3.150810        -1.663876         0.535615
 C         1.849896        -1.211661         0.603731
 H        -0.394410        -0.527598         0.436069
 H        -0.170768         1.133423         0.461348
 H        -0.385921         0.405426        -1.027882
 H         2.398250        -1.179067        -1.885242
 H         2.029549         0.593423        -2.302723
 H         4.507675         0.464179        -1.748093
 H         4.137473         1.636488         0.723745
 H         5.089202        -0.924869         0.457502
 H         1.229145        -2.011517         0.317611
 H         1.674745        -1.124841         1.708166
