19
Iteration:  2132charge 0 multiplicity 1
 C         0.076734         0.327719        -0.248201
 C         1.512822         0.038190        -0.125687
 C         2.561214         0.877395        -0.923753
 C         3.859323         0.843853        -0.097994
 C         3.379880         0.077417         1.161676
 O         1.960582         0.212569         1.249232
 C         4.121689        -0.697168         0.074097
 O         3.250383        -1.481416        -0.896983
 C         1.769581        -1.433910        -0.438879
 H        -0.547603        -0.497419         0.252948
 H        -0.275796         1.346707         0.120760
 H        -0.128640         0.275942        -1.323312
 H         2.740292         0.546308        -1.899760
 H         2.165712         1.864116        -1.170683
 H         4.716448         1.495060         0.085422
 H         3.829799         0.241029         2.116997
 H         5.076398        -1.085161         0.210970
 H         1.333194        -1.668413        -1.395263
 H         1.754572        -2.255254         0.414482
