19
Iteration:  3425
 C         0.113584         0.335979        -0.181384
 C         1.592655        -0.050230        -0.131498
 C         2.324743         0.266067        -1.410943
 C         3.761038         0.437286        -0.904706
 C         3.574616         0.824878         0.546686
 O         2.224047         0.669941         0.939997
 C         4.101792        -0.587833         0.120980
 O         3.117101        -1.683761         0.499945
 C         1.735051        -1.471085         0.097740
 H        -0.005559         1.298663         0.295002
 H        -0.174898         0.427894        -1.342235
 H        -0.574640        -0.425938         0.199261
 H         2.067534        -0.633092        -2.067993
 H         1.881779         1.173984        -1.703699
 H         4.500668         0.941254        -1.513432
 H         4.105677         1.618606         1.040944
 H         5.149976        -0.954956         0.314866
 H         1.412654        -2.124422        -0.881146
 H         1.161376        -1.789369         0.872155
