19
Iteration:  1104
 C         0.076728         0.428902        -0.131050
 C         1.566075         0.066319        -0.224666
 C         2.502789         1.298891        -0.352902
 C         3.795381         0.783579         0.256656
 C         3.275043        -0.259764         1.247790
 O         1.896015        -0.420167         1.119264
 C         4.057734        -0.708586         0.028267
 O         3.405631        -1.356576        -1.053812
 C         1.913697        -1.071018        -1.130561
 H        -0.669413         0.054819        -0.915624
 H        -0.188753        -0.099677         0.767279
 H        -0.149512         1.496778         0.055924
 H         2.597421         1.453658        -1.506219
 H         2.196953         2.271431         0.153508
 H         4.632578         1.398430         0.552036
 H         3.732918        -0.364252         2.301656
 H         5.153834        -1.093360         0.097814
 H         1.677393        -0.740525        -2.141398
 H         1.359242        -2.067936        -0.882760
