19
Iteration:  1542charge 0 multiplicity 1
 C         0.079939         0.384384        -0.329986
 C         1.478954         0.010128        -0.098191
 C         2.571877         1.030748        -0.662887
 C         3.870744         0.796225         0.156949
 C         3.358449        -0.132262         1.259804
 O         1.945531        -0.057079         1.325947
 C         4.011947        -0.703901         0.010926
 O         3.284473        -1.239838        -1.124707
 C         1.912303        -1.363371        -0.724086
 H        -0.715312         0.548432         0.442979
 H         0.108893         1.362389        -0.799386
 H        -0.376040        -0.309666        -1.064493
 H         2.721267         0.929159        -1.673196
 H         2.117410         2.063444        -0.540655
 H         4.573152         1.604295         0.164066
 H         3.835291        -0.339301         2.180558
 H         4.971828        -1.295861         0.229269
 H         1.299626        -1.541103        -1.745035
 H         1.790674        -2.175728         0.097943
