19
Iteration:  4645
 C         0.049367         0.322802        -0.114237
 C         1.477923        -0.090832        -0.239875
 C         2.203953        -0.116011        -1.553858
 C         3.718157         0.035157        -1.157655
 C         3.652900         0.883759         0.133687
 O         2.244161         0.872578         0.610139
 C         4.136737        -0.568396         0.169460
 O         3.166547        -1.377380         0.987803
 C         1.831632        -1.304113         0.612381
 H         0.009560         0.470930         1.080230
 H        -0.044365         1.186662        -0.799191
 H        -0.765100        -0.311404        -0.339737
 H         2.075506        -1.032005        -2.083527
 H         2.000840         0.801036        -2.173893
 H         4.555886         0.120127        -1.920592
 H         4.109350         1.795813         0.313439
 H         5.192217        -0.781205         0.504700
 H         1.568464        -2.293104         0.050401
 H         1.300641        -1.441444         1.493463
