19
Iteration:  2191charge 0 multiplicity 1
 C         0.031299         0.319627        -0.200594
 C         1.509341         0.020387        -0.248957
 C         2.447084         1.069839        -0.846398
 C         3.812359         0.798038        -0.255064
 C         3.474387         0.225727         1.087669
 O         2.048377         0.124011         1.212184
 C         4.016361        -0.654985         0.035825
 O         3.229272        -1.789799        -0.389162
 C         1.927036        -1.360697        -0.754619
 H        -0.495385        -0.060755        -1.059179
 H        -0.380911        -0.011637         0.729553
 H         0.023639         1.436809        -0.201305
 H         2.466629         1.055846        -1.918135
 H         2.096548         2.012701        -0.394090
 H         4.693137         1.455041        -0.370860
 H         3.987095         0.653170         2.010789
 H         5.131079        -0.938889         0.137969
 H         1.598511        -1.487222        -1.811939
 H         1.240716        -2.132357        -0.231188
