19
Iteration:  2246
 C        -0.023072         0.297659        -0.141003
 C         1.477359         0.069400        -0.225511
 C         2.439047         1.119616        -0.895312
 C         3.854095         0.714794        -0.328261
 C         3.544484         0.303056         1.099169
 O         2.040294         0.173079         1.154078
 C         4.002509        -0.694566         0.106270
 O         3.202669        -1.798472        -0.276390
 C         1.960957        -1.423460        -0.830562
 H        -0.290781         1.210216        -0.606300
 H        -0.560894        -0.527972        -0.571003
 H        -0.258517         0.300316         0.980631
 H         2.363345         1.313799        -1.906273
 H         2.225044         2.110372        -0.493886
 H         4.687976         1.274418        -0.810169
 H         3.939712         0.521868         2.136109
 H         5.075626        -0.973981         0.113151
 H         1.983076        -1.194371        -1.877665
 H         1.300078        -2.318596        -0.546644
