19
Iteration:    69charge 0 multiplicity 1
 C         0.023195         0.314940        -0.169194
 C         1.540470         0.226515        -0.143754
 C         2.460884         1.295026         0.482666
 C         3.745554         0.479440         0.836744
 C         3.289077        -0.903119         1.065301
 O         1.839594        -0.977266         0.740858
 C         4.144170        -0.617597        -0.151271
 O         3.319519        -0.916682        -1.264381
 C         2.161607        -0.163739        -1.518823
 H        -0.361057        -0.447983        -0.687444
 H        -0.402727         0.265356         0.838341
 H        -0.364154         1.273167        -0.649200
 H         2.689887         2.003872        -0.276396
 H         2.006653         1.851523         1.327120
 H         4.504476         1.069666         1.436913
 H         3.485585        -1.660572         1.857925
 H         5.208923        -1.086609        -0.374742
 H         2.238862         0.689335        -2.190853
 H         1.483475        -0.897853        -1.888651
