19
Iteration:  4042charge 0 multiplicity 1
 C        -0.013098         0.416542        -0.055164
 C         1.529276        -0.021070        -0.112261
 C         2.276798        -0.088463        -1.542102
 C         3.751877         0.179445        -1.092340
 C         3.623397         0.858611         0.306033
 O         2.245782         0.871841         0.633265
 C         4.103370        -0.557319         0.205334
 O         3.173096        -1.558038         0.788688
 C         1.844621        -1.394192         0.436265
 H        -0.405791         0.664913         0.900437
 H        -0.246219         1.394361        -0.638915
 H        -0.608088        -0.391043        -0.592259
 H         1.957352        -1.146014        -1.849565
 H         1.974889         0.642456        -2.301117
 H         4.459802         0.647788        -1.744214
 H         4.187024         1.761647         0.591402
 H         5.118654        -0.998123         0.246227
 H         1.634432        -2.117124        -0.489350
 H         1.258216        -1.818974         1.270691
