19
Iteration:   242charge 0 multiplicity 1
 C         0.085150         0.430105        -0.153639
 C         1.539854         0.096678        -0.169896
 C         2.463417         1.359119         0.278630
 C         3.781736         0.614666         0.744918
 C         3.292555        -0.730558         1.211327
 O         1.880539        -0.970568         0.863213
 C         4.073533        -0.660880        -0.071946
 O         3.372426        -1.051109        -1.312409
 C         2.034614        -0.375090        -1.521359
 H        -0.417508        -0.007613        -0.993973
 H        -0.316630        -0.119983         0.711806
 H        -0.284320         1.566463        -0.192389
 H         2.494852         2.132863        -0.438421
 H         1.944884         1.820136         1.129085
 H         4.554796         1.144859         1.250112
 H         3.557983        -1.145702         2.150677
 H         5.118017        -0.952203        -0.216356
 H         2.062911         0.594506        -2.143627
 H         1.406476        -1.168222        -2.047119
