19
Iteration:  3693charge 0 multiplicity 1
 C        -0.006997         0.339949        -0.166520
 C         1.526504        -0.031451        -0.067498
 C         2.368862        -0.002790        -1.449692
 C         3.797462         0.310768        -0.971292
 C         3.600061         0.855867         0.492081
 O         2.224024         0.994414         0.790629
 C         4.057766        -0.555933         0.186752
 O         3.174688        -1.734027         0.348136
 C         1.775769        -1.473688         0.423605
 H        -0.045610         1.359039         0.166342
 H        -0.329212         0.279716        -1.193299
 H        -0.734291        -0.317166         0.392905
 H         2.284665        -0.811897        -2.119798
 H         1.881752         0.853464        -1.875212
 H         4.529322         0.686417        -1.681364
 H         4.293232         1.642541         0.976276
 H         5.054223        -0.799411         0.442432
 H         1.275585        -2.351304        -0.263130
 H         1.402757        -1.639486         1.448576
