19
Iteration:  1963
 C         0.057084         0.417712        -0.266846
 C         1.509463         0.052737        -0.139350
 C         2.511264         1.031353        -0.784108
 C         3.806003         0.812447        -0.075064
 C         3.424042         0.060602         1.162465
 O         1.990928        -0.117009         1.287736
 C         4.043140        -0.652952        -0.014202
 O         3.276161        -1.518214        -0.740166
 C         1.883400        -1.300179        -0.675020
 H        -0.393449        -0.147135        -1.120974
 H        -0.507781         0.149525         0.631978
 H        -0.193010         1.465588        -0.453787
 H         2.597807         0.836831        -1.927601
 H         2.198343         2.014410        -0.819601
 H         4.665809         1.486274        -0.130348
 H         3.899250         0.303790         2.071308
 H         5.043181        -1.017080         0.036219
 H         1.646618        -1.610819        -1.724905
 H         1.374962        -2.028981         0.054229
