19
Iteration:  4704charge 0 multiplicity 1
 C        -0.005595         0.263386        -0.194074
 C         1.486443         0.032206        -0.127827
 C         2.262252        -0.198878        -1.476006
 C         3.700602         0.032592        -1.031949
 C         3.623728         0.833402         0.208570
 O         2.259660         1.102541         0.459501
 C         4.080945        -0.566111         0.218196
 O         3.228182        -1.610370         0.683885
 C         1.852548        -1.232202         0.816750
 H        -0.530371        -0.344286         0.493705
 H        -0.367944         1.227692         0.087562
 H        -0.328639        -0.035057        -1.249931
 H         2.104515        -1.210170        -1.957341
 H         1.959791         0.563859        -2.257120
 H         4.348843         0.266026        -1.818530
 H         4.329409         1.704123         0.392353
 H         5.103753        -0.608174         0.494993
 H         1.273122        -2.053876         0.534499
 H         1.717254        -0.970865         1.902657
