19
Iteration:  4229
 C         0.010979         0.222353        -0.106374
 C         1.524789        -0.009158        -0.195396
 C         2.263400         0.136453        -1.596897
 C         3.679503         0.160748        -1.105358
 C         3.632163         0.760766         0.301508
 O         2.276520         0.942866         0.680402
 C         4.059353        -0.646742         0.227340
 O         3.210151        -1.549468         0.886196
 C         1.842801        -1.357756         0.418801
 H        -0.026471         1.072957         0.707578
 H        -0.570143         0.633698        -1.042713
 H        -0.526748        -0.657236         0.199117
 H         2.053264        -0.552257        -2.425810
 H         2.007599         1.176819        -1.897982
 H         4.428655         0.233594        -1.925388
 H         4.244247         1.521790         0.744889
 H         5.119270        -0.920028         0.277677
 H         1.515949        -2.070559        -0.403507
 H         1.238933        -1.550304         1.272188
