19
Iteration:  3460
 C        -0.049145         0.446718        -0.142169
 C         1.530244        -0.059944        -0.126551
 C         2.341144         0.380511        -1.471252
 C         3.767281         0.357944        -0.934193
 C         3.514546         0.698087         0.573946
 O         2.120665         0.834266         0.793848
 C         4.083940        -0.673241         0.165302
 O         3.315250        -1.815001         0.495820
 C         1.894192        -1.496381         0.206779
 H        -0.454037         0.681258         0.873143
 H        -0.133377         1.343934        -0.806588
 H        -0.693378        -0.296747        -0.527578
 H         2.013316        -0.318614        -2.362960
 H         2.050240         1.330802        -1.774706
 H         4.648245         0.764962        -1.433107
 H         4.105553         1.476497         1.210620
 H         5.109028        -0.885728         0.369710
 H         1.573831        -2.215473        -0.646416
 H         1.246055        -1.665537         1.088439
