19
Iteration:   728
 C         0.051570         0.513912        -0.164099
 C         1.546261         0.050745        -0.148889
 C         2.551066         1.247026        -0.179075
 C         3.732391         0.725221         0.523359
 C         3.278555        -0.598648         1.257819
 O         1.848508        -0.682343         1.111090
 C         4.044082        -0.592090        -0.083271
 O         3.426878        -1.057056        -1.235125
 C         1.994030        -0.923276        -1.230181
 H         0.092225         1.519643         0.229047
 H        -0.375825         0.567677        -1.286870
 H        -0.635346        -0.019175         0.477369
 H         2.821070         1.627039        -1.236257
 H         2.122964         2.169583         0.359697
 H         4.548951         1.307830         0.967223
 H         3.619675        -0.768734         2.232061
 H         5.135405        -0.843775        -0.219807
 H         1.787133        -0.524157        -2.280119
 H         1.518026        -1.943810        -1.114198
