19
Iteration:   468
 C         0.083862         0.313927        -0.110925
 C         1.553230         0.157645        -0.136939
 C         2.456076         1.407272         0.032158
 C         3.735402         0.730333         0.569443
 C         3.257944        -0.627470         1.192365
 O         1.913866        -0.812965         0.909125
 C         4.066147        -0.697347        -0.121411
 O         3.271622        -1.285021        -1.097502
 C         2.165290        -0.435919        -1.431398
 H        -0.076340         1.397002        -0.196510
 H        -0.663768        -0.048710        -0.876276
 H        -0.265245        -0.130503         0.764337
 H         2.423977         2.105211        -0.852942
 H         2.055409         1.973698         0.838707
 H         4.562270         1.232433         1.095802
 H         3.597853        -0.975672         2.234435
 H         5.048256        -1.039021        -0.170290
 H         2.431166         0.430210        -2.098410
 H         1.517790        -1.231454        -1.799488
