19
Iteration:  2812
 C         0.007548         0.274497        -0.148653
 C         1.531637         0.017687        -0.121842
 C         2.404497         0.685141        -1.275401
 C         3.764950         0.592086        -0.654455
 C         3.501182         0.563570         0.917037
 O         2.120015         0.444050         1.129939
 C         4.070602        -0.661692         0.143435
 O         3.196502        -1.760025         0.042110
 C         1.877044        -1.385205        -0.369000
 H        -0.539919        -0.577448         0.235876
 H        -0.110343         1.082266         0.523958
 H        -0.145695         0.613759        -1.248704
 H         2.292691        -0.025864        -2.261599
 H         2.192952         1.726526        -1.501138
 H         4.630900         1.070796        -1.087190
 H         4.219335         1.075614         1.575047
 H         5.091351        -0.889394         0.158506
 H         1.762713        -1.675482        -1.404162
 H         1.069947        -2.016402         0.254266
