19
Iteration:   438charge 0 multiplicity 1
 C         0.019763         0.278120        -0.113261
 C         1.555347         0.173368        -0.131154
 C         2.496023         1.369130         0.178954
 C         3.780376         0.637964         0.551138
 C         3.257884        -0.586954         1.209966
 O         1.858484        -0.666378         0.991623
 C         4.003334        -0.744230        -0.083613
 O         3.424648        -1.192989        -1.256311
 C         2.109262        -0.520224        -1.539731
 H        -0.212478         0.983975        -0.923552
 H        -0.485161        -0.682085        -0.273469
 H        -0.461078         0.815400         0.877856
 H         2.480336         2.119330        -0.674861
 H         2.121569         1.841036         1.213394
 H         4.651320         1.243230         0.931740
 H         3.547872        -1.070982         2.194866
 H         4.996144        -1.177235        -0.049917
 H         2.098906         0.169468        -2.353636
 H         1.487487        -1.441680        -1.733174
