19
Iteration:  2969
 C         0.109007         0.257853        -0.243165
 C         1.555291        -0.022417        -0.080447
 C         2.424568         0.578443        -1.271574
 C         3.766565         0.615604        -0.713284
 C         3.502070         0.619188         0.762298
 O         2.133058         0.619565         1.109316
 C         4.033168        -0.664446         0.152929
 O         3.215936        -1.798005        -0.059511
 C         1.783208        -1.470983        -0.038188
 H        -0.226818         1.022814         0.468208
 H        -0.131643         0.659430        -1.293870
 H        -0.568363        -0.528210        -0.212788
 H         2.346547         0.221349        -2.267476
 H         1.914967         1.671235        -1.386539
 H         4.508843         1.195161        -1.209848
 H         4.153999         0.981367         1.523419
 H         5.008657        -0.987023         0.523633
 H         1.356930        -2.030951        -0.770683
 H         1.389655        -1.944364         0.888345
