19
Iteration:  2315charge 0 multiplicity 1
 C         0.050113         0.434804        -0.311421
 C         1.563979         0.003844        -0.117883
 C         2.492082         0.734486        -0.985503
 C         3.795163         0.819892        -0.199513
 C         3.469366         0.305003         1.089281
 O         1.966072         0.204458         1.253042
 C         4.107355        -0.696236         0.073223
 O         3.257064        -1.551942        -0.720897
 C         1.826220        -1.504714        -0.346177
 H        -0.303283         0.828169         0.641627
 H        -0.038136         1.311870        -1.011173
 H        -0.537749        -0.455585        -0.688392
 H         2.543815         0.395171        -2.132806
 H         2.087054         1.707815        -1.089020
 H         4.535937         1.592945        -0.308598
 H         4.003978         0.483428         1.987407
 H         5.051516        -1.181444         0.295569
 H         1.386518        -1.891534        -1.336104
 H         1.467045        -2.037347         0.572784
