19
Iteration:  1036
 C         0.076842         0.206212        -0.273572
 C         1.572459         0.181196        -0.159523
 C         2.453414         1.421038        -0.117909
 C         3.801341         0.722831         0.123147
 C         3.363517        -0.235809         1.236782
 O         1.997179        -0.440219         1.161781
 C         3.986680        -0.737603        -0.031259
 O         3.201644        -1.567071        -0.907537
 C         2.029936        -0.769775        -1.253652
 H        -0.277521        -0.370509         0.642372
 H        -0.252171         1.299340        -0.079088
 H        -0.239738        -0.260148        -1.199237
 H         2.534163         1.805079        -1.219561
 H         2.076788         2.137479         0.612984
 H         4.711496         1.344364         0.313533
 H         3.720004        -0.393985         2.190735
 H         5.063769        -0.959070        -0.015723
 H         2.316109        -0.160990        -2.140470
 H         1.169110        -1.448892        -1.600084
