19
Iteration:  1908
 C         0.104120         0.320654        -0.221826
 C         1.561072         0.083418        -0.103566
 C         2.535251         1.114584        -0.831719
 C         3.819653         0.768779        -0.076136
 C         3.307834         0.058615         1.237633
 O         1.937053         0.030551         1.260376
 C         4.031494        -0.771189         0.093733
 O         3.328753        -1.520600        -0.985796
 C         1.880342        -1.293624        -0.627674
 H        -0.439817        -0.671118         0.067800
 H        -0.150742         1.051157         0.530408
 H        -0.263627         0.636693        -1.185733
 H         2.559367         0.816898        -1.936405
 H         2.302162         2.077675        -0.585618
 H         4.687195         1.482035        -0.122041
 H         3.703282         0.111042         2.286275
 H         5.033075        -1.045980         0.250292
 H         1.355457        -1.532333        -1.604671
 H         1.501782        -2.104022         0.120688
