19
Iteration:  4477
 C         0.111704         0.224459        -0.087217
 C         1.572561        -0.022008        -0.281435
 C         2.281235        -0.003713        -1.592356
 C         3.722457         0.140002        -1.158381
 C         3.616049         0.828600         0.287777
 O         2.235420         0.978261         0.592518
 C         3.989307        -0.580590         0.169543
 O         3.165432        -1.542300         0.861351
 C         1.823978        -1.346486         0.641663
 H        -0.425544         0.326314        -0.975952
 H        -0.417791        -0.514867         0.678112
 H        -0.122928         1.297881         0.330558
 H         2.034227        -0.993037        -2.087953
 H         2.001299         0.768594        -2.246293
 H         4.601681         0.268403        -1.881859
 H         4.226395         1.572848         0.802574
 H         5.036411        -0.838567         0.484102
 H         1.291137        -2.308760         0.200662
 H         1.379016        -1.051327         1.562847
