19
Iteration:  1652
 C        -0.026712         0.275718        -0.285004
 C         1.522127         0.107959        -0.191878
 C         2.449025         1.283263        -0.519595
 C         3.778983         0.817232        -0.063157
 C         3.496442         0.009461         1.173733
 O         2.053217        -0.127753         1.201422
 C         4.107198        -0.717943         0.001842
 O         3.123354        -1.735754        -0.526420
 C         1.995128        -1.113711        -1.105794
 H        -0.333821        -0.722158        -0.386099
 H        -0.173927         0.624750         0.807998
 H        -0.489876         1.001141        -1.036510
 H         2.550081         1.530604        -1.521154
 H         2.161952         2.118838         0.218687
 H         4.717567         1.529085        -0.170190
 H         3.983480         0.149072         2.205516
 H         5.074831        -1.121654        -0.033534
 H         1.980526        -0.954408        -2.074596
 H         1.251578        -1.942142        -1.060231
