19
Iteration:  2998charge 0 multiplicity 1
 C        -0.023390         0.260510        -0.192708
 C         1.504025         0.065225        -0.149170
 C         2.368543         0.629595        -1.364545
 C         3.747385         0.580827        -0.670082
 C         3.604641         0.558173         0.813686
 O         2.193643         0.565439         1.050223
 C         4.100029        -0.679265         0.136281
 O         3.196239        -1.742540         0.201852
 C         1.818681        -1.422989        -0.195473
 H        -0.435663         0.239729         0.804742
 H        -0.418988         1.191379        -0.661892
 H        -0.463396        -0.735963        -0.618881
 H         2.387973        -0.152348        -2.225301
 H         1.986665         1.561876        -1.596298
 H         4.555351         1.119588        -1.221998
 H         4.120235         1.198353         1.488550
 H         5.137503        -1.117759         0.153149
 H         1.670770        -1.916285        -1.282721
 H         1.206336        -2.088411         0.483329
