19
Iteration:  3811
 C         0.066542         0.446331        -0.106482
 C         1.485454        -0.148366        -0.166274
 C         2.284871         0.128163        -1.548715
 C         3.704263         0.268366        -1.058788
 C         3.569199         0.768700         0.395809
 O         2.247795         0.824888         0.663101
 C         4.145416        -0.558428         0.249824
 O         3.209883        -1.605869         0.668353
 C         1.781695        -1.530185         0.418820
 H        -0.665434        -0.196929         0.418694
 H         0.228094         1.319859         0.526026
 H        -0.340628         0.972717        -1.055979
 H         2.016736        -0.752555        -2.355896
 H         2.005537         1.099050        -2.023680
 H         4.502154         0.828443        -1.528276
 H         4.056991         1.771101         0.707731
 H         5.157239        -0.740618         0.494374
 H         1.468192        -2.252521        -0.222797
 H         1.224514        -1.678017         1.411695
