19
Iteration:  4912
 C         0.036057         0.357119        -0.243604
 C         1.492874        -0.105531        -0.099441
 C         2.278685        -0.182811        -1.446093
 C         3.656078         0.097389        -1.062032
 C         3.655390         0.890472         0.175079
 O         2.274580         1.011169         0.597168
 C         4.109844        -0.497567         0.227774
 O         3.177235        -1.630205         0.630406
 C         1.809929        -1.272371         0.776545
 H        -0.081759         1.363348        -0.239199
 H        -0.448868         0.140998        -1.272863
 H        -0.466828        -0.240396         0.557698
 H         2.037824        -1.161530        -1.855896
 H         2.080208         0.644151        -2.119046
 H         4.447792         0.329558        -1.846259
 H         4.135361         1.829266         0.386335
 H         5.187408        -0.851214         0.331198
 H         1.296478        -2.234574         0.564572
 H         1.541946        -0.972495         1.797988
