19
Iteration:   182charge 0 multiplicity 1
 C         0.065864         0.450012        -0.172927
 C         1.532192         0.039342        -0.123853
 C         2.508761         1.193297         0.281279
 C         3.840226         0.490493         0.788105
 C         3.159356        -0.859580         1.145071
 O         1.742753        -0.838784         1.016381
 C         3.999516        -0.704353        -0.152351
 O         3.513917        -0.517609        -1.466527
 C         2.112274        -0.580627        -1.450083
 H        -0.409934         0.282481         0.887111
 H         0.150105         1.472583        -0.561000
 H        -0.455749        -0.088579        -0.912711
 H         2.714799         1.824857        -0.700222
 H         2.036578         1.723670         1.149047
 H         4.658818         0.977844         1.354892
 H         3.569229        -1.457261         2.000665
 H         4.929153        -1.180080        -0.206999
 H         1.656329        -0.165174        -2.358735
 H         1.840926        -1.679249        -1.393880
