19
Iteration:  4709charge 0 multiplicity 1
 C         0.033304         0.242111        -0.184898
 C         1.502765         0.013197        -0.173451
 C         2.251175        -0.197585        -1.507162
 C         3.720329         0.069239        -1.067144
 C         3.598881         0.861708         0.222660
 O         2.266462         1.065545         0.480328
 C         4.051143        -0.566382         0.270463
 O         3.196238        -1.614573         0.640620
 C         1.873893        -1.189725         0.876048
 H        -0.368579        -0.541439         0.570833
 H        -0.343729         1.313350         0.030695
 H        -0.362884         0.078025        -1.143043
 H         2.029448        -1.191065        -1.889315
 H         1.979678         0.481845        -2.281118
 H         4.440323         0.241500        -1.940330
 H         4.292179         1.629303         0.331282
 H         5.128145        -0.747788         0.572686
 H         1.224145        -2.116685         0.571070
 H         1.625873        -0.766098         1.883905
