19
Iteration:  2930
 C         0.010022         0.386678        -0.204394
 C         1.532966        -0.009206        -0.188214
 C         2.462624         0.552588        -1.334328
 C         3.778616         0.665576        -0.588773
 C         3.423918         0.477301         0.858804
 O         2.015395         0.640438         1.081702
 C         4.030873        -0.692246         0.119516
 O         3.287306        -1.813997        -0.273239
 C         1.941955        -1.483475         0.122775
 H        -0.148992         1.452750        -0.564873
 H        -0.459727        -0.212427        -0.936886
 H        -0.278226         0.275835         0.897130
 H         2.597328        -0.160515        -2.208962
 H         2.211935         1.509505        -1.544600
 H         4.594318         1.221174        -1.079861
 H         3.936021         0.907222         1.773921
 H         5.018724        -0.925767         0.438666
 H         1.159822        -2.119420        -0.456655
 H         1.771822        -1.574064         1.191799
