19
Iteration:  1419
 C         0.054208         0.299292        -0.252481
 C         1.511663         0.109675        -0.204825
 C         2.411868         1.344440        -0.364929
 C         3.820720         0.871789        -0.008304
 C         3.448395        -0.109917         1.190516
 O         1.980934        -0.183570         1.126263
 C         4.083420        -0.712127        -0.023073
 O         3.252829        -1.700968        -0.674921
 C         1.966045        -1.152130        -1.067577
 H        -0.361469         1.318436        -0.503062
 H        -0.455038        -0.361360        -0.898697
 H        -0.347370         0.250516         0.728390
 H         2.476251         1.596724        -1.351173
 H         2.238423         2.190050         0.338315
 H         4.691932         1.577273         0.159212
 H         3.834845        -0.033981         2.239929
 H         5.070965        -1.099979        -0.131717
 H         1.925265        -0.933439        -2.170265
 H         1.049048        -1.826731        -0.999201
