19
Iteration:  4228
 C         0.008106         0.221964        -0.105907
 C         1.523240        -0.014781        -0.191517
 C         2.261522         0.138474        -1.593839
 C         3.684499         0.169017        -1.103592
 C         3.639681         0.749843         0.295529
 O         2.280156         0.944690         0.681200
 C         4.060775        -0.645693         0.221008
 O         3.207262        -1.541688         0.881962
 C         1.838995        -1.359212         0.418233
 H        -0.032964         1.045173         0.680807
 H        -0.560859         0.632390        -1.047675
 H        -0.540288        -0.665476         0.198578
 H         2.067259        -0.578391        -2.428722
 H         1.996371         1.151286        -1.874569
 H         4.440811         0.236015        -1.893554
 H         4.235477         1.549552         0.755303
 H         5.090972        -0.936744         0.299789
 H         1.527596        -2.063640        -0.392630
 H         1.202669        -1.550111         1.307450
