19
Iteration:  4319charge 0 multiplicity 1
 C         0.070387         0.319178        -0.290305
 C         1.526037        -0.069834        -0.100936
 C         2.263725        -0.034394        -1.436522
 C         3.720749         0.207634        -1.056369
 C         3.574142         0.833734         0.356138
 O         2.184363         1.021392         0.657896
 C         4.097381        -0.588148         0.204056
 O         3.236129        -1.729863         0.488561
 C         1.823128        -1.288090         0.712804
 H        -0.531826         0.050110         0.732000
 H        -0.058560         1.413656        -0.472360
 H        -0.401631        -0.201227        -1.214812
 H         2.049092        -0.983970        -1.885862
 H         1.880119         0.834649        -2.046796
 H         4.476392         0.442818        -1.790380
 H         4.161903         1.718252         0.671414
 H         5.140238        -0.831254         0.459255
 H         1.211971        -2.248928         0.666614
 H         1.861873        -1.040083         1.750487
