19
Iteration:   610charge 0 multiplicity 1
 C         0.081558         0.444119        -0.148063
 C         1.500397         0.083195        -0.142556
 C         2.446859         1.339633         0.027237
 C         3.752127         0.686393         0.542111
 C         3.290709        -0.559507         1.179084
 O         1.871316        -0.632113         0.990332
 C         4.077243        -0.663189        -0.090624
 O         3.489587        -1.179568        -1.230326
 C         1.960943        -0.816935        -1.300094
 H        -0.682403        -0.230218        -0.538688
 H        -0.338744         0.652788         0.882297
 H         0.081861         1.383665        -0.697255
 H         2.665679         1.881250        -0.922698
 H         2.047025         2.039095         0.680771
 H         4.483873         1.398323         0.991549
 H         3.568847        -1.097885         2.048870
 H         5.148127        -0.957339         0.014682
 H         1.934239        -0.146362        -2.255208
 H         1.418351        -1.766067        -1.325028
