19
Iteration:  4411
 C         0.076515         0.380715        -0.176445
 C         1.528690        -0.056169        -0.126592
 C         2.217004        -0.039796        -1.488552
 C         3.655411         0.151475        -1.052844
 C         3.578493         0.882892         0.280682
 O         2.224703         0.980791         0.580517
 C         4.041480        -0.603690         0.200157
 O         3.253423        -1.619471         0.824487
 C         1.916359        -1.425858         0.530676
 H        -0.611907        -0.432071        -0.090032
 H        -0.148870         1.139621         0.680437
 H        -0.078723         0.880268        -1.234389
 H         1.877539        -0.930214        -2.126406
 H         1.984920         0.875708        -1.997613
 H         4.457856         0.376000        -1.866818
 H         4.171943         1.734033         0.500254
 H         5.141013        -0.809105         0.332663
 H         1.562899        -2.212645        -0.144961
 H         1.252023        -1.496869         1.355207
