19
Iteration:  4708charge 0 multiplicity 1
 C         0.025273         0.243480        -0.187222
 C         1.495436         0.019340        -0.165205
 C         2.253093        -0.195492        -1.501987
 C         3.716245         0.061254        -1.055005
 C         3.605636         0.856114         0.220910
 O         2.266391         1.071492         0.474891
 C         4.056412        -0.565091         0.257970
 O         3.202559        -1.613313         0.649368
 C         1.869774        -1.202115         0.863951
 H        -0.386091        -0.486403         0.540943
 H        -0.366858         1.317210         0.047020
 H        -0.345997         0.058602        -1.153864
 H         2.040535        -1.205139        -1.914132
 H         1.981350         0.481952        -2.264525
 H         4.418679         0.247634        -1.926083
 H         4.294994         1.628267         0.331932
 H         5.132525        -0.707961         0.559780
 H         1.246500        -2.085450         0.559870
 H         1.644393        -0.802543         1.910169
