19
Iteration:  2440charge 0 multiplicity 1
 C         0.075813         0.380690        -0.150267
 C         1.568844         0.013692        -0.261692
 C         2.409823         1.052794        -1.027654
 C         3.813599         0.771224        -0.533496
 C         3.442598         0.371011         0.989642
 O         2.075039         0.138588         1.128067
 C         3.999825        -0.710155         0.187070
 O         3.233998        -1.813241        -0.098848
 C         1.879274        -1.456723        -0.621853
 H        -0.441622         0.793229        -1.030797
 H        -0.345062        -0.469205         0.316671
 H         0.092151         1.110062         0.705190
 H         2.210223         0.943177        -2.101091
 H         2.059484         2.145645        -0.712082
 H         4.576788         1.446902        -0.919359
 H         3.986260         0.856163         1.755013
 H         4.986335        -0.945523         0.346213
 H         1.853536        -1.691507        -1.808736
 H         1.219476        -2.120318        -0.118945
