19
Iteration:  4751
 C        -0.032895         0.308466        -0.202897
 C         1.540909         0.024904        -0.105067
 C         2.247226        -0.211999        -1.426879
 C         3.725585         0.093205        -1.095524
 C         3.598618         0.841630         0.255988
 O         2.201270         1.186041         0.376025
 C         4.089652        -0.626616         0.283794
 O         3.257137        -1.682124         0.609085
 C         1.884595        -1.256374         0.840379
 H        -0.512095        -0.167788         0.597572
 H        -0.326662         1.393173         0.070403
 H        -0.435911        -0.023565        -1.107624
 H         2.020304        -1.324469        -1.606580
 H         1.802755         0.328571        -2.238667
 H         4.553746         0.334588        -1.846821
 H         4.037147         1.686085         0.688493
 H         5.198385        -0.846700         0.426754
 H         1.283758        -2.092993         0.584928
 H         1.826758        -1.039198         1.944559
