19
Iteration:  3552charge 0 multiplicity 1
 C         0.128497         0.449239        -0.226544
 C         1.562703        -0.039704        -0.152651
 C         2.327158         0.165579        -1.440854
 C         3.776588         0.333302        -0.921095
 C         3.446490         0.809340         0.524508
 O         2.109709         0.871018         0.827879
 C         3.986129        -0.559505         0.173137
 O         3.253985        -1.835626         0.209528
 C         1.882427        -1.525578         0.537214
 H        -0.552912        -0.315050        -0.526525
 H        -0.119000         0.829118         0.744642
 H        -0.007289         1.328544        -0.919239
 H         2.366336        -0.542731        -2.217772
 H         2.001857         1.190544        -1.929879
 H         4.560014         0.716715        -1.569141
 H         3.897676         1.457211         1.216169
 H         5.001330        -0.781475         0.586856
 H         1.305107        -2.334968         0.297459
 H         1.827578        -1.338060         1.668619
