19
Iteration:  2615
 C        -0.065387         0.315570        -0.137060
 C         1.526045         0.040184        -0.245205
 C         2.396136         0.966458        -1.093353
 C         3.780410         0.671198        -0.587407
 C         3.490894         0.393810         0.914634
 O         2.128489         0.346374         1.107155
 C         4.008831        -0.737171         0.113076
 O         3.265582        -1.813434         0.003736
 C         1.941365        -1.421567        -0.478420
 H        -0.694848        -0.516343        -0.498184
 H        -0.260151         0.532435         0.891091
 H        -0.105690         1.228097        -0.926363
 H         2.225703         0.717553        -2.163827
 H         2.065416         2.072892        -1.026530
 H         4.722761         1.078903        -0.951699
 H         3.945310         0.809668         1.833552
 H         5.109647        -0.944195         0.298364
 H         1.832898        -1.899824        -1.447896
 H         1.335204        -1.993440         0.264996
