19
Iteration:  1491charge 0 multiplicity 1
 C         0.090346         0.331966        -0.221893
 C         1.601965         0.123268        -0.193518
 C         2.523419         1.321275        -0.570050
 C         3.797272         0.851161         0.045571
 C         3.345728        -0.099502         1.225509
 O         1.940533        -0.228430         1.165723
 C         4.006323        -0.721849         0.021225
 O         3.327721        -1.568697        -0.825874
 C         1.915716        -1.209028        -0.923311
 H        -0.125789         0.656512         0.764710
 H        -0.348861         1.110175        -0.908046
 H        -0.539851        -0.576017        -0.182787
 H         2.372636         1.273383        -1.722367
 H         2.074015         2.215417        -0.183224
 H         4.728653         1.465816         0.133585
 H         3.793959        -0.160965         2.216210
 H         5.012636        -0.984113         0.154411
 H         1.531082        -1.108086        -1.941583
 H         1.262192        -1.961840        -0.510316
