19
Iteration:  2728charge 0 multiplicity 1
 C         0.058569         0.284529        -0.266363
 C         1.510575         0.021882        -0.061765
 C         2.509213         0.577713        -1.178874
 C         3.801688         0.713270        -0.471552
 C         3.468686         0.449051         0.945444
 O         2.031671         0.568861         1.178624
 C         4.078843        -0.696548         0.044642
 O         3.230762        -1.708762        -0.401701
 C         1.837578        -1.450109        -0.100114
 H        -0.199464         1.333102         0.052914
 H        -0.157229         0.179395        -1.413847
 H        -0.582111        -0.438032         0.305110
 H         2.558383        -0.137712        -1.923383
 H         2.042711         1.578087        -1.583999
 H         4.414944         1.561567        -0.882398
 H         4.043167         0.767720         1.840856
 H         5.030631        -1.129254         0.250703
 H         1.339344        -1.997263        -0.933186
 H         1.548756        -1.908222         0.795749
