19
Iteration:  2134
 C         0.079637         0.330290        -0.256874
 C         1.509572         0.048354        -0.139545
 C         2.557823         0.887569        -0.942064
 C         3.856067         0.829985        -0.089133
 C         3.380593         0.089422         1.158199
 O         1.953354         0.210106         1.267009
 C         4.116231        -0.706196         0.068349
 O         3.251652        -1.488244        -0.895186
 C         1.783646        -1.428446        -0.432991
 H        -0.512584        -0.539353         0.201755
 H        -0.275822         1.260083         0.239144
 H        -0.141270         0.312853        -1.276554
 H         2.778269         0.485298        -1.847174
 H         2.181578         1.920779        -1.174998
 H         4.672620         1.520467         0.068944
 H         3.843022         0.240732         2.083303
 H         5.137811        -1.096915         0.198799
 H         1.311608        -1.648908        -1.371326
 H         1.736032        -2.252961         0.400823
