19
Iteration:  3226charge 0 multiplicity 1
 C        -0.000373         0.305840        -0.149591
 C         1.590583        -0.044833        -0.142864
 C         2.362241         0.520021        -1.319234
 C         3.783370         0.454973        -0.910825
 C         3.544965         0.699776         0.658149
 O         2.174198         0.689585         0.923506
 C         4.010752        -0.639222         0.179305
 O         3.189156        -1.735720         0.395352
 C         1.860541        -1.556291        -0.051031
 H        -0.215560         0.600601         0.837782
 H        -0.080781         1.145233        -0.779904
 H        -0.640850        -0.557126        -0.519121
 H         2.180444         0.066478        -2.295581
 H         2.013829         1.586534        -1.485028
 H         4.686190         0.763131        -1.409085
 H         4.128955         1.463714         1.281821
 H         5.012696        -0.965722         0.381741
 H         1.617558        -1.904768        -1.047250
 H         1.082126        -1.976157         0.656591
