19
Iteration:  3366
 C         0.061831         0.248022        -0.154503
 C         1.583646         0.008320        -0.158694
 C         2.431977         0.377656        -1.374507
 C         3.807998         0.402673        -0.857932
 C         3.503818         0.692216         0.613218
 O         2.106871         0.950848         0.851770
 C         4.009078        -0.657786         0.254824
 O         3.193683        -1.817129         0.136520
 C         1.822301        -1.532225         0.302837
 H        -0.227670         0.697191        -1.195632
 H        -0.511151        -0.671003        -0.147815
 H        -0.253622         1.034115         0.678261
 H         2.304320        -0.232580        -2.209235
 H         1.926424         1.394153        -1.702770
 H         4.693310         0.792349        -1.380698
 H         4.258192         1.377808         1.128419
 H         5.048457        -0.761677         0.483036
 H         1.211256        -2.136934        -0.426022
 H         1.514841        -1.726648         1.335953
