19
Iteration:   672charge 0 multiplicity 1
 C         0.026822         0.223397        -0.156900
 C         1.557021         0.221344        -0.167407
 C         2.421263         1.459829         0.039177
 C         3.794932         0.710406         0.371496
 C         3.319973        -0.512623         1.179761
 O         1.871853        -0.580964         1.118168
 C         4.013381        -0.740277        -0.100681
 O         3.297088        -1.427560        -1.046263
 C         2.147326        -0.548485        -1.457806
 H        -0.269846         0.727542        -1.093472
 H        -0.285108        -0.919847        -0.265721
 H        -0.212232         0.687468         0.774683
 H         2.542838         2.105065        -0.874286
 H         2.161948         2.081332         0.997143
 H         4.654281         1.260730         0.821497
 H         3.729702        -1.006747         2.088485
 H         4.998911        -1.116708        -0.122111
 H         2.633357         0.117667        -2.175145
 H         1.383833        -1.228099        -1.939392
