19
Iteration:  3337
 C         0.020275         0.276938        -0.232997
 C         1.550904         0.058175        -0.153314
 C         2.421998         0.229478        -1.372841
 C         3.754453         0.512023        -0.763044
 C         3.560942         0.679848         0.666003
 O         2.156734         0.783471         0.919967
 C         4.078951        -0.652934         0.196214
 O         3.165336        -1.723994         0.035182
 C         1.801746        -1.373202         0.327879
 H        -0.398311        -0.069811        -1.127040
 H        -0.575746        -0.413220         0.442249
 H        -0.281783         1.318906        -0.184046
 H         2.548221        -0.763168        -1.893488
 H         2.024321         0.918021        -2.063348
 H         4.573255         0.985649        -1.337784
 H         4.164265         1.298660         1.266019
 H         5.131404        -1.010406         0.346940
 H         1.204346        -2.114967        -0.306179
 H         1.606764        -1.485757         1.437942
