19
Iteration:   504
 C         0.081055         0.463025        -0.214950
 C         1.547241         0.090761        -0.137630
 C         2.419941         1.361505         0.090180
 C         3.749669         0.677295         0.523159
 C         3.303860        -0.589374         1.207610
 O         1.889777        -0.788424         1.030858
 C         4.031170        -0.679437        -0.088896
 O         3.399276        -1.175947        -1.229478
 C         2.058531        -0.603720        -1.390238
 H        -0.053380         1.118227         0.619373
 H        -0.181535         0.776088        -1.179726
 H        -0.517102        -0.461335         0.191088
 H         2.468429         2.156905        -0.692317
 H         2.024860         1.767131         1.098500
 H         4.627419         1.255240         0.886161
 H         3.585827        -0.967945         2.160565
 H         5.124756        -0.938722        -0.081200
 H         2.070312        -0.119726        -2.316816
 H         1.345064        -1.463754        -1.535334
