19
Iteration:  2214charge 0 multiplicity 1
 C         0.119004         0.312695        -0.184402
 C         1.540546         0.147527        -0.096059
 C         2.397677         1.123934        -0.990081
 C         3.716081         0.796808        -0.363453
 C         3.501715         0.240840         1.078457
 O         2.068688        -0.031487         1.189138
 C         4.037402        -0.708575         0.082805
 O         3.156698        -1.743427        -0.244474
 C         1.954532        -1.303177        -0.777596
 H        -0.018524         0.494683        -1.200776
 H        -0.338901        -0.603142         0.107313
 H        -0.279732         1.179048         0.480860
 H         2.228174         0.827388        -2.068769
 H         2.176171         2.141325        -0.745335
 H         4.627711         1.437803        -0.494361
 H         3.898991         0.459232         2.130737
 H         5.082656        -1.100317         0.159146
 H         1.933617        -1.217285        -1.918737
 H         1.295538        -2.193130        -0.676772
