19
Iteration:  2097charge 0 multiplicity 1
 C         0.069365         0.421500        -0.273550
 C         1.572281         0.047505        -0.187609
 C         2.460824         1.113421        -0.862402
 C         3.760115         0.767735        -0.209426
 C         3.371470         0.148124         1.154781
 O         1.963331         0.072173         1.341750
 C         4.075641        -0.724080         0.083468
 O         3.370262        -1.682095        -0.772363
 C         1.880360        -1.400188        -0.594913
 H        -0.187023         0.527739         0.768818
 H        -0.107294         1.354062        -0.868119
 H        -0.565682        -0.441439        -0.753436
 H         2.366855         0.913376        -1.984673
 H         2.028731         2.017576        -0.503272
 H         4.664658         1.401896        -0.224493
 H         3.886989         0.600422         2.077233
 H         5.117883        -0.986164         0.189938
 H         1.307719        -1.760808        -1.500209
 H         1.291620        -2.007412         0.230571
