19
Iteration:  1660charge 0 multiplicity 1
 C         0.027178         0.267328        -0.231163
 C         1.569559         0.115868        -0.237748
 C         2.449161         1.273061        -0.478850
 C         3.827549         0.809624        -0.103059
 C         3.443175         0.004641         1.173464
 O         2.012060        -0.094159         1.200058
 C         4.006858        -0.728713         0.031736
 O         3.196482        -1.688466        -0.582956
 C         1.975746        -1.170843        -1.049308
 H        -0.461138        -0.715726        -0.527431
 H        -0.193880         0.396714         0.813921
 H        -0.361704         1.088467        -0.856651
 H         2.364376         1.524513        -1.538844
 H         2.164669         2.257755        -0.014959
 H         4.781738         1.266585        -0.190125
 H         3.939430         0.045515         2.142586
 H         5.044851        -1.050218         0.059183
 H         1.975201        -0.854927        -2.251920
 H         1.235044        -1.944913        -0.897937
