19
Iteration:  3679charge 0 multiplicity 1
 C         0.094311         0.339565        -0.169897
 C         1.505961        -0.072918        -0.132757
 C         2.289240         0.087524        -1.431114
 C         3.702836         0.308333        -0.965302
 C         3.620372         0.846237         0.431827
 O         2.266458         0.895819         0.825994
 C         4.028784        -0.561721         0.254641
 O         3.195430        -1.606069         0.429500
 C         1.775214        -1.486595         0.325673
 H        -0.082831         1.478668        -0.061342
 H        -0.379585         0.080128        -1.090706
 H        -0.433284        -0.130279         0.743613
 H         2.201181        -1.004284        -1.831784
 H         2.084166         0.709862        -2.259129
 H         4.513015         0.418283        -1.681956
 H         4.203770         1.554262         0.917110
 H         5.068061        -0.926112         0.487956
 H         1.402162        -2.097337        -0.525511
 H         1.256819        -1.858342         1.343687
