19
Iteration:  1480charge 0 multiplicity 1
 C         0.045334         0.317571        -0.110155
 C         1.528672         0.048556        -0.235481
 C         2.527123         1.262329        -0.595587
 C         3.836113         0.825840         0.073160
 C         3.392329        -0.081069         1.218751
 O         1.936133        -0.215013         1.178004
 C         4.044156        -0.670400         0.028475
 O         3.234731        -1.566257        -0.748485
 C         1.934429        -1.167713        -1.051070
 H        -0.041721         0.936408         0.751156
 H        -0.314489         0.878551        -1.030069
 H        -0.476612        -0.658505        -0.107280
 H         2.846254         1.441787        -1.721720
 H         2.231221         2.233095        -0.225676
 H         4.619172         1.613563         0.120265
 H         3.723451        -0.026310         2.242919
 H         5.032912        -1.046802         0.007810
 H         2.040301        -0.914517        -2.106074
 H         1.319752        -2.037813        -0.873460
