19
Iteration:  3962
 C         0.070153         0.267412        -0.251471
 C         1.547576        -0.024748        -0.086419
 C         2.271119        -0.040665        -1.493250
 C         3.696524         0.242518        -1.019708
 C         3.645629         0.840109         0.385136
 O         2.248425         1.009373         0.671952
 C         4.054593        -0.595307         0.206416
 O         3.171455        -1.668495         0.460622
 C         1.797938        -1.315830         0.695762
 H        -0.302565         1.300566        -0.038574
 H        -0.103080         0.009504        -1.258071
 H        -0.589776        -0.348283         0.466225
 H         2.114174        -0.965990        -2.027037
 H         1.886932         0.769656        -2.090617
 H         4.455348         0.337903        -1.824599
 H         4.321117         1.569098         0.847843
 H         5.097358        -0.832423         0.265353
 H         1.117636        -2.228703         0.446459
 H         1.706995        -1.162091         1.735743
