19
Iteration:  2336charge 0 multiplicity 1
 C         0.115637         0.465132        -0.249321
 C         1.546031        -0.014544        -0.111487
 C         2.457713         0.911328        -1.030140
 C         3.794045         0.753478        -0.308492
 C         3.300793         0.166046         1.137082
 O         1.951498         0.302258         1.241905
 C         3.978005        -0.653972         0.091090
 O         3.324885        -1.655363        -0.740262
 C         1.979702        -1.534988        -0.294540
 H        -0.367918         0.354748         0.711746
 H         0.097490         1.575554        -0.406736
 H        -0.416780        -0.130863        -1.095573
 H         2.663597         0.470311        -2.105737
 H         2.228760         1.901298        -1.245581
 H         4.645227         1.377353        -0.557458
 H         3.860044         0.408808         2.005909
 H         5.023569        -0.900579         0.172714
 H         1.378025        -2.027560        -1.163046
 H         1.816614        -2.131573         0.715734
