19
Iteration:  2596charge 0 multiplicity 1
 C        -0.021201         0.374453        -0.161140
 C         1.500982         0.048146        -0.197658
 C         2.440659         0.877758        -1.173078
 C         3.803407         0.704177        -0.460371
 C         3.516144         0.451479         0.994317
 O         2.060960         0.369325         1.080917
 C         4.130300        -0.689140         0.075718
 O         3.252389        -1.864863        -0.128933
 C         1.841253        -1.542236        -0.387336
 H        -0.601839        -0.482519         0.051245
 H        -0.157522         0.988956         0.723376
 H        -0.541609         0.831802        -1.008063
 H         2.436160         0.782675        -2.185207
 H         2.031049         1.963378        -1.118117
 H         4.487387         1.480390        -0.760423
 H         4.015955         0.888507         1.845596
 H         5.235814        -0.949777         0.153671
 H         1.704692        -1.774676        -1.576467
 H         1.259660        -2.145117         0.237152
