19
Iteration:  4221
 C        -0.007925         0.212463        -0.119396
 C         1.521740        -0.055877        -0.165976
 C         2.244364         0.136360        -1.532753
 C         3.726986         0.209466        -1.084567
 C         3.707694         0.743045         0.275738
 O         2.301273         0.947313         0.668281
 C         4.052677        -0.652004         0.155226
 O         3.161668        -1.487146         0.832617
 C         1.791243        -1.392219         0.452106
 H        -0.263267         1.003168         0.722363
 H        -0.315147         0.593653        -1.091578
 H        -0.571565        -0.654792         0.193974
 H         2.110206        -0.674314        -2.203404
 H         1.854917         1.162506        -1.941386
 H         4.689077         0.390708        -1.657134
 H         4.171874         1.596609         0.650217
 H         5.076738        -1.059853         0.458083
 H         1.650485        -2.244192        -0.301750
 H         1.174399        -1.505192         1.281565
