19
Iteration:  3364
 C         0.056062         0.239504        -0.150667
 C         1.573629        -0.002298        -0.160078
 C         2.427291         0.359797        -1.373071
 C         3.832078         0.410846        -0.859873
 C         3.515045         0.702670         0.631499
 O         2.118547         0.957333         0.866557
 C         4.003635        -0.631775         0.246063
 O         3.185742        -1.820277         0.120795
 C         1.810064        -1.532285         0.291875
 H        -0.273840         0.633626        -1.204165
 H        -0.537680        -0.634649        -0.154654
 H        -0.231565         1.052260         0.578323
 H         2.293063        -0.306633        -2.265262
 H         1.957503         1.376521        -1.726877
 H         4.690670         0.799788        -1.380036
 H         4.261771         1.404441         1.169230
 H         5.039952        -0.854485         0.496374
 H         1.236209        -2.132257        -0.376055
 H         1.502886        -1.715172         1.435508
