19
Iteration:    67charge 0 multiplicity 1
 C         0.059313         0.321334        -0.182845
 C         1.535397         0.218030        -0.129986
 C         2.450269         1.293763         0.488928
 C         3.733555         0.478800         0.833110
 C         3.293159        -0.891059         1.072452
 O         1.847433        -0.972189         0.728424
 C         4.159795        -0.629582        -0.157271
 O         3.306789        -0.914268        -1.265301
 C         2.153029        -0.165892        -1.509967
 H        -0.357824        -0.505853        -0.637794
 H        -0.340573         0.349028         0.852439
 H        -0.345256         1.191483        -0.756157
 H         2.669071         1.991649        -0.261022
 H         2.012928         1.785486         1.356068
 H         4.460341         1.072271         1.441362
 H         3.428404        -1.653973         1.880589
 H         5.198013        -1.099113        -0.361767
 H         2.163600         0.721150        -2.161618
 H         1.445750        -0.838762        -1.899060
