19
Iteration:   656charge 0 multiplicity 1
 C         0.028266         0.262364        -0.204487
 C         1.597869         0.096406        -0.119054
 C         2.442256         1.354961         0.051573
 C         3.761785         0.756955         0.465973
 C         3.347427        -0.488808         1.211766
 O         1.968769        -0.576815         1.014089
 C         4.051578        -0.747256        -0.072279
 O         3.166510        -1.401489        -1.103094
 C         2.163331        -0.529739        -1.391856
 H        -0.359869         0.275391        -1.260975
 H        -0.380021        -0.595907         0.187160
 H        -0.430218         1.201299         0.327324
 H         2.428223         1.967133        -0.825965
 H         2.003334         1.915698         0.828091
 H         4.631107         1.373206         0.559827
 H         3.617917        -0.708802         2.232371
 H         5.123242        -1.140159        -0.095622
 H         2.500918         0.398017        -2.022216
 H         1.405247        -1.161778        -1.952430
