19
Iteration:  2671
 C         0.001740         0.339576        -0.172553
 C         1.492098         0.041854        -0.157999
 C         2.460862         0.827400        -1.222880
 C         3.810846         0.689223        -0.592642
 C         3.498830         0.372540         0.993101
 O         2.072534         0.412797         1.098257
 C         4.068254        -0.669106         0.103644
 O         3.310455        -1.803091        -0.096578
 C         1.814680        -1.460495        -0.329346
 H        -0.383786         0.759984        -1.091825
 H        -0.558654        -0.596301        -0.032869
 H        -0.432021         1.014351         0.706680
 H         2.254161         0.425904        -2.185275
 H         2.010049         1.909061        -1.239721
 H         4.657003         1.266490        -0.898623
 H         3.922423         0.854239         1.855687
 H         5.153910        -0.868344         0.220838
 H         1.631156        -1.765004        -1.307835
 H         1.275515        -2.090651         0.370611
