19
Iteration:  2780charge 0 multiplicity 1
 C         0.064088         0.312123        -0.133077
 C         1.540891        -0.045008        -0.181341
 C         2.459177         0.778677        -1.186683
 C         3.822987         0.689692        -0.548701
 C         3.478081         0.499745         0.839572
 O         2.034898         0.545968         1.001034
 C         4.089405        -0.640920         0.139512
 O         3.229440        -1.879599        -0.136681
 C         1.823379        -1.525772        -0.179144
 H        -0.376065         0.043355         0.806419
 H         0.092799         1.326205        -0.399284
 H        -0.510980        -0.269337        -0.943869
 H         2.284628         0.549409        -2.256404
 H         2.010161         1.781173        -1.056416
 H         4.617294         1.362114        -0.812623
 H         3.982987         1.032539         1.651016
 H         5.058526        -0.975789         0.312984
 H         1.422754        -1.979912        -1.039974
 H         1.273605        -1.996088         0.780684
