19
Iteration:  4550
 C         0.152194         0.314381        -0.259678
 C         1.563788        -0.072112        -0.150768
 C         2.293102        -0.249381        -1.497617
 C         3.700203         0.213905        -1.085545
 C         3.573000         0.849584         0.305864
 O         2.206410         1.041776         0.592445
 C         4.025436        -0.608601         0.159444
 O         3.136494        -1.638023         0.616634
 C         1.872277        -1.197133         0.792855
 H        -0.192590         1.373416        -0.193489
 H        -0.362181        -0.221847        -0.977306
 H        -0.376367        -0.002082         0.713663
 H         2.350736        -1.317712        -1.721701
 H         1.870055         0.380939        -2.346913
 H         4.332685         0.622991        -1.960617
 H         4.152431         1.697653         0.459499
 H         5.060971        -0.890244         0.490921
 H         1.256896        -2.096216         1.028411
 H         1.683838        -0.631865         1.864374
