19
Iteration:  1357
 C        -0.007698         0.451389        -0.143684
 C         1.549384        -0.031240        -0.213406
 C         2.594498         1.125753        -0.601130
 C         3.777510         0.762217         0.169936
 C         3.295682        -0.205981         1.253249
 O         1.912400        -0.091121         1.245890
 C         4.040447        -0.685670         0.053506
 O         3.385025        -1.251606        -1.119477
 C         1.932916        -1.364456        -0.890600
 H        -0.288493         0.758685        -1.176078
 H        -0.685014        -0.385366         0.247906
 H         0.102727         1.318317         0.606992
 H         2.705434         1.053334        -1.770695
 H         2.171697         2.189781        -0.507690
 H         4.496676         1.538279         0.485966
 H         3.755203        -0.331866         2.280315
 H         5.068536        -1.142683         0.271210
 H         1.424142        -1.573499        -1.901786
 H         1.714837        -2.209974        -0.239145
