19
Iteration:  4157charge 0 multiplicity 1
 C         0.017781         0.444248        -0.139517
 C         1.463883        -0.105217        -0.149155
 C         2.313491        -0.085901        -1.447507
 C         3.759326         0.204730        -0.981949
 C         3.549361         0.856136         0.365029
 O         2.138858         1.043074         0.513498
 C         4.073654        -0.608703         0.190878
 O         3.296499        -1.771440         0.474558
 C         1.852994        -1.338345         0.726925
 H        -0.366031         0.307634         0.875113
 H         0.019037         1.454373        -0.269754
 H        -0.590739        -0.018183        -0.901472
 H         2.281841        -0.962563        -2.077002
 H         1.887071         0.838416        -1.938756
 H         4.600678         0.381261        -1.718392
 H         4.181106         1.609639         0.717830
 H         5.203296        -0.631606         0.392609
 H         1.361274        -2.228841         0.341362
 H         1.512975        -1.123803         1.867061
