19
Iteration:  4077charge 0 multiplicity 1
 C         0.131789         0.353794        -0.213324
 C         1.545967        -0.090173        -0.100114
 C         2.250386         0.062337        -1.542700
 C         3.684210         0.151307        -1.115638
 C         3.554863         0.861467         0.269058
 O         2.213941         0.917209         0.630434
 C         4.022404        -0.575089         0.180726
 O         3.239865        -1.660921         0.743205
 C         1.870992        -1.396359         0.665990
 H        -0.530136        -0.105622         0.530741
 H         0.334743         1.451167        -0.050401
 H        -0.278832         0.221530        -1.151024
 H         1.821768        -0.689135        -2.218630
 H         1.767403         1.038234        -1.883681
 H         4.486146         0.455681        -1.758938
 H         4.121740         1.820499         0.560272
 H         5.031391        -0.811669         0.312636
 H         1.347275        -2.314221         0.150206
 H         1.337257        -1.200551         1.690084
