19
Iteration:  4078charge 0 multiplicity 1
 C         0.123928         0.351558        -0.224502
 C         1.550339        -0.080885        -0.090068
 C         2.247309         0.058376        -1.538015
 C         3.682018         0.155723        -1.118365
 C         3.555106         0.859698         0.274770
 O         2.223868         0.919335         0.621863
 C         4.019802        -0.580418         0.178078
 O         3.244087        -1.663598         0.737550
 C         1.862883        -1.395883         0.672440
 H        -0.536136        -0.130481         0.522410
 H         0.305335         1.411759        -0.039994
 H        -0.282316         0.221091        -1.135195
 H         1.838311        -0.673461        -2.212233
 H         1.764279         1.052828        -1.862173
 H         4.533521         0.458221        -1.738316
 H         4.095021         1.818972         0.543042
 H         5.041345        -0.790794         0.331143
 H         1.347976        -2.290125         0.148963
 H         1.335925        -1.213919         1.726252
