19
Iteration:  1309charge 0 multiplicity 1
 C         0.022998         0.396360        -0.277063
 C         1.520485         0.115964        -0.099737
 C         2.498103         1.214907        -0.569826
 C         3.801692         0.807513         0.167596
 C         3.391724        -0.219327         1.244937
 O         1.918170        -0.246258         1.287633
 C         4.067918        -0.739086        -0.003478
 O         3.340875        -1.393695        -0.994264
 C         1.940653        -1.173412        -0.934619
 H        -0.403922        -0.451478        -0.868419
 H        -0.391349         0.290216         0.689953
 H        -0.045418         1.366302        -0.735648
 H         2.554832         1.304193        -1.638572
 H         2.177100         2.298829        -0.308384
 H         4.689984         1.419908         0.203940
 H         3.745754        -0.204417         2.250366
 H         5.060266        -1.100395        -0.052046
 H         1.596883        -1.040750        -2.014296
 H         1.365943        -2.130887        -0.687719
