19
Iteration:  3139
 C        -0.030783         0.325450        -0.199844
 C         1.547828         0.030399        -0.150715
 C         2.377449         0.435186        -1.348596
 C         3.789437         0.534188        -0.659067
 C         3.493948         0.602569         0.774033
 O         2.098918         0.810396         0.953055
 C         4.069436        -0.712264         0.233831
 O         3.295813        -1.833908        -0.138919
 C         1.847496        -1.449439         0.133620
 H        -0.418717         0.865395        -0.983196
 H        -0.537345        -0.606585        -0.212954
 H        -0.414401         0.900267         0.692630
 H         2.462310        -0.492535        -2.040602
 H         2.238354         1.378894        -1.892147
 H         4.444745         1.144114        -1.228862
 H         4.035180         1.105915         1.564570
 H         5.084119        -0.965398         0.583141
 H         1.347683        -2.185729        -0.313711
 H         1.727000        -1.589280         1.276087
