19
Iteration:  4588charge 0 multiplicity 1
 C         0.038965         0.269974        -0.147606
 C         1.500510         0.028040        -0.096650
 C         2.263448        -0.092868        -1.436886
 C         3.710946        -0.035633        -1.121393
 C         3.583068         0.844593         0.147554
 O         2.224725         1.190757         0.491165
 C         4.029620        -0.568174         0.272423
 O         3.256254        -1.643101         0.797875
 C         1.863817        -1.351993         0.667816
 H        -0.326298         1.239767         0.166897
 H        -0.250373         0.170182        -1.268828
 H        -0.352874        -0.619775         0.297937
 H         1.908537        -0.884127        -2.110003
 H         2.116814         0.795229        -2.006029
 H         4.537727         0.253351        -1.705753
 H         4.290559         1.706233         0.355559
 H         5.055403        -0.788138         0.478734
 H         1.422497        -2.146079         0.017281
 H         1.442379        -1.228536         1.615106
