19
Iteration:   157charge 0 multiplicity 1
 C         0.125198         0.550795        -0.256092
 C         1.562509         0.133446        -0.075442
 C         2.541883         1.242448         0.268231
 C         3.679183         0.476434         0.839320
 C         3.178395        -0.974645         1.028041
 O         1.799977        -0.949209         0.985554
 C         4.054556        -0.614313        -0.190223
 O         3.461372        -0.511405        -1.432153
 C         2.057046        -0.640908        -1.291851
 H        -0.242537         1.287792         0.350422
 H         0.036054         0.681496        -1.316432
 H        -0.439624        -0.416129        -0.070439
 H         2.906690         1.766612        -0.577640
 H         2.144113         1.853208         1.065348
 H         4.281580         0.952343         1.597842
 H         3.657519        -1.555513         1.775662
 H         5.084992        -0.974294        -0.227238
 H         1.616085        -0.298405        -2.220281
 H         1.802510        -1.655617        -1.255737
