19
Iteration:  2858charge 0 multiplicity 1
 C         0.093826         0.318879        -0.182488
 C         1.562619         0.065771        -0.264738
 C         2.363548         0.828675        -1.269598
 C         3.686654         0.611230        -0.668759
 C         3.493428         0.491479         0.868045
 O         2.081829         0.461970         1.047224
 C         4.028592        -0.692116         0.090355
 O         3.260104        -1.864473         0.113841
 C         1.914540        -1.468099        -0.178249
 H        -0.399456        -0.308058        -0.867714
 H        -0.227960         0.024631         0.853501
 H         0.117307         1.424995        -0.380666
 H         2.186893         0.470380        -2.330982
 H         1.981721         1.925417        -1.070662
 H         4.635356         1.040178        -1.104931
 H         3.950639         1.085105         1.717869
 H         5.128528        -0.866894         0.178570
 H         1.619071        -1.856615        -1.128394
 H         1.238242        -2.012271         0.703134
