19
Iteration:  2195
 C         0.038574         0.321540        -0.202840
 C         1.536889         0.002456        -0.247253
 C         2.430877         1.100913        -0.849226
 C         3.820894         0.786922        -0.273066
 C         3.468926         0.219541         1.104495
 O         2.066190         0.087918         1.219194
 C         4.004789        -0.637430         0.045588
 O         3.228582        -1.796268        -0.350764
 C         1.910944        -1.349735        -0.759202
 H        -0.430752        -0.002089        -1.128695
 H        -0.473393        -0.105160         0.688820
 H        -0.023892         1.447327        -0.045430
 H         2.459089         1.028255        -2.077783
 H         2.048135         2.101001        -0.591011
 H         4.688188         1.416320        -0.532165
 H         3.970083         0.601622         1.973347
 H         5.027106        -0.828180         0.068570
 H         1.694004        -1.361401        -1.894118
 H         1.201891        -1.952444        -0.298249
