19
Iteration:  1902charge 0 multiplicity 1
 C         0.021323         0.308203        -0.259440
 C         1.539163         0.119805        -0.142292
 C         2.523598         1.101744        -0.820199
 C         3.844975         0.796422        -0.040931
 C         3.399351         0.021701         1.208026
 O         1.976179         0.023655         1.295244
 C         4.031877        -0.746283         0.080999
 O         3.306331        -1.527446        -0.919542
 C         1.845703        -1.343902        -0.679677
 H        -0.303237        -0.556464         0.237615
 H        -0.319417         1.163251         0.402270
 H        -0.268417         0.495416        -1.351633
 H         2.643685         0.914423        -1.871652
 H         2.188929         2.215599        -0.529565
 H         4.648875         1.485800         0.009261
 H         3.855779         0.164698         2.156162
 H         5.098943        -1.090381         0.278423
 H         1.436400        -1.442146        -1.664602
 H         1.443898        -2.029419         0.026655
