19
Iteration:  3640
 C         0.022132         0.340887        -0.180219
 C         1.485783        -0.058806        -0.190639
 C         2.314340         0.387268        -1.518321
 C         3.723552         0.271038        -1.022106
 C         3.607660         0.713135         0.449031
 O         2.183709         0.839105         0.740772
 C         4.025253        -0.654648         0.187762
 O         3.244888        -1.630807         0.680444
 C         1.861114        -1.547565         0.364882
 H        -0.137139         1.125463        -0.856408
 H        -0.726865        -0.483926        -0.249164
 H        -0.043739         0.802634         0.810968
 H         2.322686        -0.325730        -2.291376
 H         1.811195         1.418388        -1.775961
 H         4.547564         0.544750        -1.657992
 H         4.285008         1.483670         0.991201
 H         5.058820        -0.861064         0.139471
 H         1.586009        -2.373000        -0.307069
 H         1.382951        -1.704784         1.261217
