19
Iteration:   631
 C         0.048247         0.416793        -0.215526
 C         1.592868         0.168493        -0.134434
 C         2.465123         1.389530         0.023744
 C         3.780240         0.743254         0.397991
 C         3.313657        -0.562532         1.232984
 O         1.902021        -0.803721         1.060350
 C         4.037867        -0.644939        -0.063094
 O         3.282060        -1.288897        -1.108361
 C         2.097717        -0.641248        -1.388834
 H        -0.390400        -0.235109        -0.983043
 H        -0.486712        -0.060561         0.698527
 H        -0.221825         1.443715        -0.345743
 H         2.309548         1.995752        -0.919086
 H         2.054073         1.970055         0.805982
 H         4.650599         1.342847         0.770038
 H         3.777329        -0.732208         2.168627
 H         5.114444        -0.923513        -0.076222
 H         2.142770         0.057919        -2.293156
 H         1.492163        -1.480096        -1.440873
