19
Iteration:  3071
 C        -0.006640         0.277619        -0.213410
 C         1.493575         0.094296        -0.064537
 C         2.436479         0.507699        -1.363849
 C         3.754168         0.560069        -0.735472
 C         3.587719         0.573363         0.754768
 O         2.133610         0.580998         1.075894
 C         4.094503        -0.604579         0.066352
 O         3.219144        -1.710070         0.165221
 C         1.770133        -1.486083        -0.062328
 H        -0.532101        -0.591120        -0.650807
 H        -0.531961         0.586417         0.621662
 H        -0.183194         0.974306        -1.028035
 H         2.391277        -0.299708        -2.052481
 H         2.233789         1.623491        -1.672730
 H         4.658593         1.055860        -1.195229
 H         4.160270         1.087473         1.509487
 H         5.130524        -1.002580         0.190506
 H         1.550208        -1.874011        -1.000084
 H         1.339285        -2.191921         0.732190
