19
Iteration:  4199
 C         0.059291         0.269317        -0.230405
 C         1.551384         0.001293        -0.081995
 C         2.299815        -0.021910        -1.457540
 C         3.673282         0.226260        -1.074034
 C         3.662724         0.877487         0.279875
 O         2.312471         0.940666         0.739734
 C         4.068441        -0.578150         0.127650
 O         3.172131        -1.571509         0.731610
 C         1.718714        -1.423855         0.507856
 H        -0.284895         0.869197         0.699319
 H        -0.226107         0.792174        -1.114400
 H        -0.440941        -0.668508        -0.154234
 H         2.165396        -0.897982        -2.043282
 H         1.957426         0.941873        -1.991279
 H         4.272575         0.346632        -2.022595
 H         4.191908         1.631384         0.762229
 H         5.085163        -1.075145         0.134876
 H         1.255753        -2.112583        -0.245912
 H         1.294895        -1.552074         1.470667
