19
Iteration:  4373
 C         0.039361         0.222639        -0.104193
 C         1.558238        -0.004987        -0.161860
 C         2.372196        -0.106187        -1.568896
 C         3.715848         0.162602        -1.010956
 C         3.584662         0.882183         0.305510
 O         2.232241         0.978271         0.629997
 C         4.047296        -0.598188         0.231338
 O         3.133950        -1.626812         0.563183
 C         1.848401        -1.200686         0.593469
 H        -0.462209        -0.687277         0.518767
 H        -0.188815         1.095583         0.502238
 H        -0.480371         0.443021        -1.084709
 H         2.227103        -1.122974        -1.912227
 H         2.065674         0.664873        -2.342267
 H         4.472654         0.498986        -1.644321
 H         4.131710         1.755666         0.784733
 H         5.008246        -0.974201         0.545070
 H         1.157111        -2.088997         0.273234
 H         1.642530        -1.111411         1.732083
