19
Iteration:   154charge 0 multiplicity 1
 C         0.112303         0.541390        -0.242496
 C         1.568469         0.145022        -0.078226
 C         2.545613         1.228156         0.274474
 C         3.689301         0.487713         0.883601
 C         3.186645        -0.964672         1.019780
 O         1.795154        -0.958983         0.970908
 C         4.049131        -0.599717        -0.193728
 O         3.452329        -0.540644        -1.441944
 C         2.057739        -0.609273        -1.303577
 H        -0.294457         1.465974         0.212653
 H         0.010665         0.569411        -1.364990
 H        -0.519876        -0.386265         0.049779
 H         2.861589         1.753876        -0.582006
 H         2.153925         1.888844         1.036138
 H         4.364399         0.864343         1.706231
 H         3.721421        -1.501327         1.806548
 H         5.162171        -0.971216        -0.265039
 H         1.636907        -0.402155        -2.336444
 H         1.846426        -1.680419        -1.204406
