19
Iteration:  2674charge 0 multiplicity 1
 C         0.009306         0.355155        -0.167673
 C         1.489838         0.054132        -0.157451
 C         2.453141         0.826849        -1.232468
 C         3.831880         0.678266        -0.587437
 C         3.456820         0.364742         0.981172
 O         2.064286         0.409213         1.099332
 C         4.079126        -0.666375         0.105830
 O         3.328373        -1.813016        -0.111298
 C         1.818283        -1.454936        -0.301713
 H        -0.405722         0.822218        -1.055693
 H        -0.607444        -0.575340        -0.060452
 H        -0.294022         0.840757         0.677338
 H         2.293728         0.416225        -2.180058
 H         1.996910         1.858683        -1.149665
 H         4.692873         1.303066        -0.878469
 H         3.855174         0.960665         1.801006
 H         5.108181        -0.867644         0.180333
 H         1.550642        -1.834778        -1.356747
 H         1.292173        -2.000344         0.411025
