19
Iteration:  4738
 C         0.046355         0.247272        -0.117746
 C         1.533654        -0.044398        -0.100057
 C         2.372705        -0.261413        -1.486696
 C         3.748161         0.168430        -1.069473
 C         3.556664         0.869916         0.247257
 O         2.201549         1.152045         0.415915
 C         4.003790        -0.610142         0.135912
 O         3.164137        -1.688008         0.613722
 C         1.856145        -1.179656         0.914282
 H        -0.441717        -0.359453         0.531537
 H        -0.115209         1.325975         0.025986
 H        -0.374138         0.102214        -1.147188
 H         2.403708        -1.322894        -1.928749
 H         2.007277         0.449864        -2.257399
 H         4.456116         0.420280        -1.848386
 H         4.335231         1.568275         0.529068
 H         5.014752        -0.806231         0.497740
 H         1.213450        -1.953879         0.778804
 H         1.660449        -0.743528         1.938404
