19
Iteration:  3626charge 0 multiplicity 1
 C         0.040273         0.280670        -0.172090
 C         1.585041        -0.067801        -0.195731
 C         2.246826         0.350857        -1.432979
 C         3.715121         0.283810        -0.998365
 C         3.647653         0.808928         0.452143
 O         2.251016         0.853872         0.707744
 C         4.033869        -0.623857         0.207163
 O         3.194152        -1.713549         0.663782
 C         1.817759        -1.484212         0.308282
 H        -0.272214         0.662242        -1.170154
 H        -0.497742        -0.600753        -0.018069
 H        -0.308226         0.990399         0.655826
 H         1.782629        -0.081739        -2.321981
 H         2.102911         1.396464        -1.569603
 H         4.526773         0.476806        -1.696324
 H         4.148071         1.606873         0.916028
 H         5.085505        -0.972461         0.389420
 H         1.479884        -2.339007        -0.463412
 H         1.219277        -1.590329         1.202049
