19
Iteration:  2087charge 0 multiplicity 1
 C         0.079723         0.412502        -0.213344
 C         1.562816         0.070467        -0.126531
 C         2.432556         1.122639        -0.838244
 C         3.785475         0.769289        -0.204247
 C         3.370003         0.121905         1.146401
 O         1.984373         0.042931         1.206851
 C         4.064497        -0.683706         0.048424
 O         3.369283        -1.753856        -0.654698
 C         1.864678        -1.361729        -0.677761
 H        -0.413266         0.863688         0.664426
 H        -0.131849         1.184359        -1.009139
 H        -0.507759        -0.561017        -0.411465
 H         2.265390         1.150761        -1.926877
 H         2.191761         2.139723        -0.513205
 H         4.523474         1.594898        -0.236695
 H         3.837097         0.517515         2.115840
 H         5.073695        -0.959690         0.218625
 H         1.517963        -1.575615        -1.728972
 H         1.490614        -2.053829         0.243210
