19
Iteration:   153
 C         0.107318         0.533633        -0.239884
 C         1.569357         0.146809        -0.078640
 C         2.546510         1.222840         0.280014
 C         3.694387         0.489277         0.896907
 C         3.191384        -0.959296         1.017623
 O         1.792635        -0.961195         0.965909
 C         4.050616        -0.596510        -0.192541
 O         3.450734        -0.548737        -1.445675
 C         2.057477        -0.599719        -1.310315
 H        -0.309718         1.530734         0.180698
 H        -0.005959         0.545163        -1.369455
 H        -0.532961        -0.349543         0.083308
 H         2.855033         1.774609        -0.616633
 H         2.146368         1.912799         1.030859
 H         4.384623         0.836642         1.719775
 H         3.731916        -1.496025         1.822295
 H         5.150774        -0.962507        -0.274533
 H         1.646962        -0.421749        -2.359449
 H         1.847930        -1.705761        -1.178744
