19
Iteration:  2944
 C         0.026979         0.392504        -0.223010
 C         1.492347        -0.013662        -0.181560
 C         2.416723         0.642853        -1.260529
 C         3.797453         0.569349        -0.591273
 C         3.464042         0.537799         0.925982
 O         2.054065         0.642613         0.960600
 C         4.048053        -0.655517         0.105366
 O         3.290727        -1.824737        -0.213984
 C         1.898130        -1.555567         0.110283
 H         0.020922         1.450514        -0.038524
 H        -0.559977         0.147996        -1.146138
 H        -0.686731        -0.092543         0.537057
 H         2.370544         0.090609        -2.292171
 H         2.042629         1.627896        -1.552802
 H         4.647779         1.136730        -1.050226
 H         4.012838         0.971662         1.750848
 H         5.135310        -0.961042         0.208852
 H         1.398114        -2.470073        -0.244121
 H         1.797283        -1.636305         1.128524
