19
Iteration:  2988charge 0 multiplicity 1
 C         0.007608         0.253317        -0.221161
 C         1.565518         0.090936        -0.128087
 C         2.379122         0.601557        -1.274816
 C         3.760039         0.592860        -0.752683
 C         3.593749         0.613889         0.877344
 O         2.181759         0.571134         1.117283
 C         4.054898        -0.651921         0.106665
 O         3.162684        -1.764541         0.098729
 C         1.815994        -1.486176        -0.140988
 H        -0.389230         0.545796         0.724257
 H        -0.420366         0.864478        -1.096899
 H        -0.394299        -0.772538        -0.584640
 H         2.231819        -0.163570        -2.144783
 H         2.064349         1.423680        -1.854086
 H         4.727384         0.933631        -1.125052
 H         4.077904         1.305327         1.498717
 H         5.138678        -0.985236         0.097389
 H         1.483575        -1.801029        -1.240238
 H         1.268824        -2.058288         0.568411
