19
Iteration:   482charge 0 multiplicity 1
 C        -0.037464         0.435004        -0.125205
 C         1.539369         0.088759        -0.147860
 C         2.448921         1.346856         0.129841
 C         3.714025         0.681624         0.561728
 C         3.356123        -0.590329         1.153323
 O         1.925105        -0.791444         0.926477
 C         4.118516        -0.630670        -0.072630
 O         3.292104        -1.275764        -1.087657
 C         2.126378        -0.527430        -1.498479
 H        -0.263619         1.445938         0.185977
 H        -0.297470         0.177176        -1.111213
 H        -0.686476        -0.211888         0.680993
 H         2.734497         1.734680        -0.883682
 H         2.063418         2.215742         0.854918
 H         4.518979         1.346884         0.982761
 H         3.665275        -1.090757         2.063508
 H         5.186731        -0.953149        -0.106973
 H         2.446570         0.233857        -2.187757
 H         1.380554        -1.142084        -2.059342
