19
Iteration:  3252
 C         0.018232         0.212513        -0.118932
 C         1.602763         0.082603        -0.197105
 C         2.359735         0.469204        -1.434276
 C         3.737369         0.471064        -0.836618
 C         3.592882         0.705079         0.712211
 O         2.218924         0.698813         0.952497
 C         4.052983        -0.637256         0.145816
 O         3.140583        -1.716352         0.412417
 C         1.794952        -1.502398        -0.069140
 H        -0.268010        -0.468234         0.744666
 H        -0.311406         1.316204        -0.066996
 H        -0.428830        -0.233116        -0.977939
 H         2.235617        -0.447730        -2.213812
 H         2.143032         1.346344        -2.010867
 H         4.633066         0.953277        -1.269210
 H         4.181335         1.375941         1.271104
 H         5.066151        -1.052993         0.331590
 H         1.505057        -2.023834        -0.923931
 H         1.008165        -1.719335         0.744535
