19
Iteration:  2604charge 0 multiplicity 1
 C        -0.114751         0.365249        -0.156103
 C         1.554648         0.010208        -0.276788
 C         2.395556         0.940848        -1.147452
 C         3.781458         0.709809        -0.499534
 C         3.546864         0.369981         0.968199
 O         2.077456         0.372948         1.078296
 C         4.115192        -0.664129         0.114890
 O         3.282379        -1.889367        -0.059671
 C         1.884195        -1.484571        -0.400942
 H        -0.728440        -0.548969        -0.134394
 H        -0.171926         0.855200         0.791969
 H        -0.610971         1.168505        -0.918578
 H         2.391895         0.650730        -2.203887
 H         2.123518         2.022897        -0.912518
 H         4.653205         1.303925        -0.819112
 H         4.068947         0.944643         1.752703
 H         5.190077        -0.988739         0.103288
 H         1.666398        -1.700817        -1.481572
 H         1.125656        -2.063489         0.177838
