19
Iteration:   453
 C         0.119211         0.308419        -0.103260
 C         1.625668         0.177151        -0.184816
 C         2.455612         1.405323         0.166555
 C         3.733008         0.667236         0.462097
 C         3.239879        -0.598017         1.235700
 O         1.861120        -0.772422         0.933721
 C         3.991536        -0.714421        -0.020542
 O         3.324703        -1.219240        -1.201247
 C         2.121459        -0.509801        -1.453048
 H        -0.404802         1.243774        -0.403444
 H        -0.174571        -0.568687        -0.656634
 H        -0.048460         0.143344         0.976885
 H         2.603553         2.029102        -0.679424
 H         2.088377         2.022238         0.991253
 H         4.598740         1.235162         0.733153
 H         3.509803        -0.884484         2.195762
 H         5.105844        -0.990067        -0.004476
 H         2.394089         0.218451        -2.310246
 H         1.329777        -1.082218        -1.950622
