19
Iteration:  1142
 C         0.142076         0.448178        -0.337012
 C         1.523626         0.068967        -0.032384
 C         2.571078         1.150522        -0.413767
 C         3.793714         0.739981         0.313402
 C         3.303131        -0.342950         1.202304
 O         1.862576        -0.298271         1.316883
 C         3.999440        -0.723156        -0.055234
 O         3.371347        -1.067856        -1.285755
 C         1.935253        -1.251838        -0.869527
 H        -0.019401         1.066580        -1.177463
 H        -0.484144        -0.518238        -0.492576
 H        -0.322871         0.765124         0.598219
 H         2.791171         1.205760        -1.508522
 H         2.195100         2.259737        -0.318953
 H         4.586407         1.485345         0.513235
 H         3.668852        -0.487353         2.157413
 H         4.927968        -1.147307         0.187591
 H         1.395055        -1.287479        -1.879695
 H         1.715839        -2.204887        -0.413579
