19
Iteration:    11
 C         0.018578         0.463845        -0.137574
 C         1.537979         0.095254        -0.087776
 C         2.418808         1.168476         0.436838
 C         3.715227         0.456814         0.822093
 C         3.211984        -0.984696         0.994223
 O         1.816676        -0.919352         0.861639
 C         4.089201        -0.639389        -0.172936
 O         3.534190        -0.689136        -1.450580
 C         2.125811        -0.291201        -1.418631
 H        -0.434845         0.378417         0.958007
 H        -0.089663         1.474531        -0.579525
 H        -0.358645        -0.269058        -0.839013
 H         2.596140         2.086272        -0.146287
 H         1.905093         1.440347         1.357516
 H         4.445310         0.693009         1.556492
 H         3.457006        -1.562498         1.862679
 H         5.107392        -0.914740        -0.132358
 H         2.105831         0.650192        -2.021169
 H         1.660187        -1.129813        -1.996836
