19
Iteration:  4943
 C         0.131429         0.329978        -0.269829
 C         1.513510         0.005122        -0.065346
 C         2.295409        -0.255842        -1.424390
 C         3.639926         0.137411        -1.090306
 C         3.548636         0.795288         0.316366
 O         2.182999         1.232995         0.563779
 C         4.060473        -0.578551         0.160914
 O         3.218758        -1.739962         0.591718
 C         1.893427        -1.258274         0.756566
 H         0.038113         1.283192        -0.818769
 H        -0.394540        -0.555533        -0.743379
 H        -0.504413         0.505039         0.734023
 H         1.979104        -1.234060        -1.670539
 H         1.845302         0.343548        -2.221047
 H         4.334679         0.587197        -1.866148
 H         4.362664         1.377648         0.670624
 H         5.175121        -0.693679         0.451785
 H         1.395827        -2.082714         0.416753
 H         1.768558        -1.132967         1.831017
