19
Iteration:  1750charge 0 multiplicity 1
 C         0.050734         0.460720        -0.331211
 C         1.541749         0.014371        -0.125746
 C         2.483388         1.127806        -0.679110
 C         3.794784         0.768171         0.023146
 C         3.334149        -0.083035         1.240519
 O         1.934035         0.015691         1.328878
 C         4.026546        -0.693967         0.007821
 O         3.353678        -1.511667        -1.048028
 C         1.985952        -1.360025        -0.645542
 H         0.086081         1.273692        -0.971749
 H        -0.556585        -0.375832        -0.778898
 H        -0.343012         0.802590         0.659434
 H         2.473495         1.062753        -1.713438
 H         2.052966         2.130839        -0.352251
 H         4.655697         1.474777        -0.166507
 H         3.901875        -0.166775         2.161043
 H         5.085339        -0.915693         0.174371
 H         1.243036        -1.689356        -1.530282
 H         1.609164        -2.118474         0.008185
