19
Iteration:   470
 C         0.066644         0.329748        -0.121484
 C         1.534746         0.137377        -0.121709
 C         2.453104         1.395283         0.026597
 C         3.732696         0.724490         0.578415
 C         3.272072        -0.617448         1.179195
 O         1.919322        -0.810200         0.908123
 C         4.076563        -0.693480        -0.125177
 O         3.271856        -1.289029        -1.085699
 C         2.163950        -0.426981        -1.442487
 H        -0.052112         1.407358        -0.153434
 H        -0.624328         0.009330        -0.910507
 H        -0.329197        -0.188063         0.835271
 H         2.483478         2.109816        -0.864533
 H         2.043786         2.065360         0.894040
 H         4.575684         1.239436         1.133409
 H         3.617727        -1.008433         2.191560
 H         5.097075        -1.022617        -0.132821
 H         2.440772         0.343020        -2.148172
 H         1.504752        -1.228829        -1.839254
