19
Iteration:  3410charge 0 multiplicity 1
 C         0.048820         0.313339        -0.196938
 C         1.506619        -0.021907        -0.125242
 C         2.386175         0.361708        -1.465515
 C         3.756775         0.442331        -0.894713
 C         3.585829         0.736759         0.552359
 O         2.221627         0.709737         0.921671
 C         4.021831        -0.639881         0.144964
 O         3.181270        -1.664852         0.438640
 C         1.780193        -1.504051         0.191393
 H        -0.253919         1.393232        -0.069919
 H        -0.382401         0.005677        -1.161401
 H        -0.471357        -0.192661         0.722319
 H         2.337588        -0.371808        -2.217814
 H         2.164896         1.368109        -2.058473
 H         4.620928         0.839570        -1.470235
 H         4.147610         1.424635         1.182286
 H         5.014870        -1.036759         0.333794
 H         1.547141        -2.155309        -0.716899
 H         1.216056        -1.878343         1.106692
