19
Iteration:  1349charge 0 multiplicity 1
 C         0.037004         0.471259        -0.113981
 C         1.554352        -0.039724        -0.215052
 C         2.581091         1.158999        -0.613036
 C         3.820645         0.792554         0.214079
 C         3.269604        -0.215403         1.258320
 O         1.871738        -0.089990         1.213814
 C         4.051251        -0.719485         0.047629
 O         3.346965        -1.226640        -1.129660
 C         1.970947        -1.413950        -0.908617
 H        -0.570305         0.598648        -0.998461
 H        -0.609851        -0.344449         0.471402
 H        -0.006999         1.524675         0.334394
 H         2.967495         0.985307        -1.690210
 H         2.125292         2.069611        -0.394589
 H         4.565924         1.543681         0.334840
 H         3.679136        -0.246410         2.277452
 H         5.137505        -1.086338         0.209332
 H         1.473180        -1.710261        -1.802430
 H         1.736669        -2.322070        -0.268121
