19
Iteration:  4086charge 0 multiplicity 1
 C         0.056802         0.308916        -0.266311
 C         1.576591        -0.047901        -0.062197
 C         2.208944         0.046181        -1.470086
 C         3.688004         0.193979        -1.118117
 C         3.587213         0.812731         0.291723
 O         2.274677         0.977400         0.586904
 C         4.029197        -0.614507         0.168906
 O         3.279945        -1.669849         0.685419
 C         1.779497        -1.366505         0.720390
 H        -0.570860        -0.247469         0.430174
 H        -0.167548         1.428288         0.077923
 H        -0.353279         0.144374        -1.314001
 H         2.021621        -0.760095        -2.243394
 H         1.930661         1.046316        -1.814264
 H         4.573802         0.402479        -1.628284
 H         4.125774         1.796567         0.527956
 H         5.059030        -0.710550         0.419454
 H         1.277073        -2.218777         0.134278
 H         1.543254        -1.419167         1.766058
