19
Iteration:  4817charge 0 multiplicity 1
 C         0.005634         0.288280        -0.180932
 C         1.517009        -0.049869        -0.175323
 C         2.200390        -0.116529        -1.609514
 C         3.653960         0.116487        -1.133168
 C         3.631794         0.791507         0.208599
 O         2.295528         0.966100         0.577334
 C         4.101369        -0.611255         0.177418
 O         3.212029        -1.411755         0.995879
 C         1.851764        -1.337947         0.625718
 H         0.037598         0.961862         0.662940
 H        -0.284688         1.102796        -0.900489
 H        -0.658132        -0.491737        -0.026798
 H         2.167590        -1.125122        -2.159073
 H         1.810160         0.708773        -2.219328
 H         4.464497         0.382819        -1.884031
 H         4.282617         1.643834         0.389834
 H         5.068291        -1.177395         0.131177
 H         1.505536        -2.173322         0.157244
 H         1.368063        -1.282500         1.616890
