19
Iteration:  4614
 C         0.067603         0.263147        -0.067062
 C         1.526058        -0.023567        -0.144302
 C         2.187948        -0.120118        -1.570545
 C         3.658170         0.038641        -1.152070
 C         3.691935         0.887722         0.224469
 O         2.258002         1.070047         0.491704
 C         4.051681        -0.562292         0.255003
 O         3.180011        -1.511002         0.946913
 C         1.857651        -1.371862         0.554956
 H        -0.085520         1.193749         0.631331
 H        -0.243695         0.573377        -1.034850
 H        -0.492115        -0.653607         0.184024
 H         2.024670        -1.051038        -2.114818
 H         1.917788         0.674755        -2.394582
 H         4.608982         0.063896        -1.753067
 H         4.195107         1.778406         0.457338
 H         5.089110        -0.938407         0.447985
 H         1.671488        -2.073704        -0.217690
 H         1.236770        -1.461405         1.463099
