19
Iteration:  2570
 C         0.149995         0.296817        -0.233702
 C         1.592812         0.003335        -0.125792
 C         2.447955         0.751056        -1.144520
 C         3.808125         0.706293        -0.516148
 C         3.452006         0.412987         1.049404
 O         2.060520         0.342791         1.212694
 C         3.968701        -0.621852         0.185205
 O         3.211674        -1.712873        -0.392794
 C         1.835387        -1.435831        -0.332584
 H        -0.494453        -0.170643         0.582733
 H         0.101069         1.370036         0.021442
 H        -0.402966         0.118374        -1.262376
 H         2.391568         0.250197        -2.170292
 H         1.964814         1.697040        -1.443130
 H         4.648090         1.299724        -0.920190
 H         4.113884         0.872190         1.808963
 H         4.984078        -0.848429         0.392173
 H         1.430615        -1.647807        -1.334860
 H         1.268718        -2.015879         0.504078
