19
Iteration:  3976
 C        -0.075589         0.233625        -0.244605
 C         1.498656        -0.049844        -0.158939
 C         2.307447         0.103474        -1.475223
 C         3.770064         0.172731        -1.113029
 C         3.619235         0.791671         0.392990
 O         2.244801         1.048142         0.662919
 C         4.061455        -0.651564         0.133248
 O         3.218461        -1.725907         0.615259
 C         1.874372        -1.271222         0.709726
 H        -0.115980         1.201464         0.162816
 H        -0.599591         0.227098        -1.223810
 H        -0.622008        -0.559147         0.328745
 H         2.157356        -0.763478        -2.255730
 H         1.948157         1.037303        -1.950759
 H         4.540964         0.711786        -1.689966
 H         4.186378         1.573027         0.778410
 H         5.105061        -1.071604         0.319515
 H         1.227529        -2.190298         0.315383
 H         1.520048        -0.889318         1.718311
