19
Iteration:  4038charge 0 multiplicity 1
 C        -0.001640         0.416123        -0.040555
 C         1.546078        -0.016686        -0.100670
 C         2.268316        -0.081484        -1.510680
 C         3.747277         0.175658        -1.106682
 C         3.624987         0.874771         0.276975
 O         2.237447         0.906032         0.636362
 C         4.107218        -0.580729         0.223111
 O         3.156822        -1.552943         0.778180
 C         1.832187        -1.424790         0.406120
 H        -0.483753         0.699148         0.945506
 H        -0.226378         1.198881        -0.739670
 H        -0.568753        -0.533042        -0.495381
 H         2.123651        -1.090270        -1.868864
 H         2.068541         0.634156        -2.284592
 H         4.514970         0.661052        -1.796054
 H         4.184535         1.691224         0.641512
 H         5.126219        -1.032667         0.291128
 H         1.617893        -2.041887        -0.413761
 H         1.266470        -1.804597         1.209021
