19
Iteration:  1233charge 0 multiplicity 1
 C        -0.023481         0.369643        -0.077482
 C         1.551964         0.056394        -0.185470
 C         2.446944         1.286302        -0.513258
 C         3.854643         0.794418         0.129815
 C         3.363315        -0.124616         1.232953
 O         1.956810        -0.391968         1.136663
 C         4.065556        -0.687517         0.026744
 O         3.228408        -1.542877        -0.753819
 C         2.052913        -0.974919        -1.275112
 H        -0.152110         0.217489         1.070400
 H        -0.182490         1.457893        -0.203378
 H        -0.617148        -0.305329        -0.723160
 H         2.669471         1.477319        -1.566529
 H         1.900943         2.224173         0.047960
 H         4.688871         1.367436         0.472684
 H         3.750377        -0.327808         2.262394
 H         5.076319        -1.200382         0.104649
 H         2.184600        -0.416410        -2.235272
 H         1.389480        -1.836765        -1.551305
