19
Iteration:  2823
 C         0.040307         0.295674        -0.156993
 C         1.539327         0.018244        -0.126549
 C         2.390489         0.672313        -1.215475
 C         3.819488         0.606877        -0.631803
 C         3.547962         0.579294         0.828345
 O         2.149463         0.435395         1.114726
 C         4.094918        -0.662633         0.099213
 O         3.161355        -1.736475         0.091761
 C         1.827883        -1.464308        -0.363742
 H        -0.588448        -0.597173        -0.140064
 H        -0.298600         0.941692         0.602650
 H        -0.415139         0.788781        -1.117287
 H         2.276752         0.140586        -2.302382
 H         2.064721         1.708742        -1.380761
 H         4.552823         1.335667        -0.958336
 H         3.845540         1.308890         1.619517
 H         5.003456        -1.108423         0.358065
 H         1.703566        -1.562285        -1.441139
 H         1.183398        -2.324506         0.150559
