19
Iteration:  4655
 C         0.096625         0.332073        -0.113029
 C         1.536308        -0.111005        -0.185123
 C         2.188238        -0.143029        -1.591698
 C         3.681524         0.015398        -1.122472
 C         3.613249         0.877921         0.144337
 O         2.270197         0.930775         0.586266
 C         4.063332        -0.517969         0.267221
 O         3.234337        -1.401862         0.948366
 C         1.825667        -1.351586         0.595155
 H        -0.421979         0.572535         0.887795
 H         0.051118         1.376235        -0.557207
 H        -0.471402        -0.355208        -0.687273
 H         1.838024        -1.006174        -2.124691
 H         1.794026         0.711896        -2.145129
 H         4.440820         0.159068        -1.935688
 H         4.184865         1.740238         0.287727
 H         5.089310        -0.925372         0.196395
 H         1.533949        -2.311374        -0.014854
 H         1.258134        -1.259921         1.501417
