19
Iteration:   230charge 0 multiplicity 1
 C         0.068185         0.365165        -0.116185
 C         1.596837         0.152948        -0.084927
 C         2.526856         1.336995         0.256530
 C         3.678714         0.602138         0.742641
 C         3.220460        -0.793676         1.136203
 O         1.868114        -0.920749         0.810628
 C         4.054898        -0.626906        -0.100512
 O         3.382947        -0.959651        -1.300880
 C         2.079043        -0.414124        -1.455600
 H        -0.321318        -0.482076        -0.680506
 H        -0.364978         0.390056         0.920584
 H        -0.177674         1.371929        -0.598754
 H         2.744095         1.894542        -0.662399
 H         2.165780         1.970123         1.090288
 H         4.477087         1.094648         1.280900
 H         3.565770        -1.383880         1.938560
 H         5.097640        -1.063415        -0.043679
 H         2.151252         0.389544        -2.277735
 H         1.360560        -1.230244        -1.822087
