19
Iteration:  2905charge 0 multiplicity 1
 C         0.068261         0.276945        -0.200072
 C         1.554162        -0.013433        -0.086669
 C         2.454849         0.475683        -1.254251
 C         3.804401         0.622382        -0.580990
 C         3.538395         0.594874         0.900898
 O         2.112573         0.646410         1.076062
 C         4.031042        -0.649510         0.180954
 O         3.182507        -1.671461        -0.277295
 C         1.772775        -1.525492        -0.084302
 H        -0.152573         0.800424        -1.165156
 H        -0.410800        -0.729652        -0.390167
 H        -0.287406         0.791066         0.624696
 H         2.573003        -0.274946        -1.932496
 H         2.111671         1.483582        -1.715826
 H         4.603135         1.187725        -1.046805
 H         3.954707         1.123156         1.722497
 H         5.037531        -1.057420         0.331178
 H         1.205008        -2.012242        -0.850846
 H         1.378393        -1.915255         1.011898
