19
Iteration:  2438charge 0 multiplicity 1
 C         0.067618         0.379347        -0.141810
 C         1.571516         0.008734        -0.266278
 C         2.417346         1.069071        -0.997958
 C         3.810347         0.751676        -0.536477
 C         3.441492         0.354020         0.982915
 O         2.070273         0.149689         1.121660
 C         4.010119        -0.693930         0.188496
 O         3.224310        -1.809944        -0.094806
 C         1.893161        -1.457119        -0.638923
 H        -0.483951         0.784759        -1.078971
 H        -0.406060        -0.469710         0.416093
 H         0.124842         1.180864         0.602673
 H         2.175822         0.950187        -2.146806
 H         2.057432         2.082382        -0.731240
 H         4.548496         1.450812        -0.917685
 H         4.009089         0.822210         1.753819
 H         5.032755        -0.923497         0.341886
 H         1.875877        -1.738171        -1.815247
 H         1.232654        -2.171837        -0.052773
