19
Iteration:  3520charge 0 multiplicity 1
 C        -0.024239         0.297496        -0.291555
 C         1.558071         0.039122        -0.106355
 C         2.318802         0.100933        -1.354236
 C         3.769578         0.420081        -0.858235
 C         3.559507         0.723195         0.569202
 O         2.202188         0.949878         0.853417
 C         4.108181        -0.686972         0.108624
 O         3.176805        -1.736776         0.198664
 C         1.842533        -1.411031         0.420796
 H        -0.486237        -0.626119        -0.000131
 H        -0.404109         1.057061         0.429861
 H        -0.318786         0.540536        -1.357271
 H         2.402030        -0.831800        -1.823387
 H         2.116270         1.021984        -2.060259
 H         4.441168         1.130234        -1.323865
 H         4.145540         1.349877         1.179814
 H         5.121850        -0.972967         0.503701
 H         1.274791        -2.166648        -0.051683
 H         1.477905        -1.327548         1.686668
