19
Iteration:   525charge 0 multiplicity 1
 C         0.131922         0.404992        -0.208995
 C         1.582120         0.121136        -0.067905
 C         2.489017         1.337549         0.098321
 C         3.811666         0.698334         0.550253
 C         3.204620        -0.670195         1.198168
 O         1.831228        -0.643418         1.054963
 C         3.992512        -0.706261        -0.114395
 O         3.425611        -1.010423        -1.368717
 C         2.029421        -0.800088        -1.284455
 H        -0.338096         0.582368         0.742645
 H         0.123146         1.170578        -0.935157
 H        -0.317888        -0.567581        -0.581337
 H         2.551082         1.913851        -0.851245
 H         2.089075         1.974863         0.899693
 H         4.563992         1.365731         1.038477
 H         3.496888        -0.922876         2.193471
 H         5.014606        -1.155710        -0.077788
 H         1.708387        -0.384877        -2.245669
 H         1.521247        -1.796405        -1.371050
