19
Iteration:  2542charge 0 multiplicity 1
 C        -0.053468         0.346285        -0.258354
 C         1.481778         0.047592        -0.111721
 C         2.532065         0.757543        -1.062003
 C         3.847326         0.750301        -0.365114
 C         3.444524         0.293682         1.010980
 O         2.024516         0.446236         1.145336
 C         4.066992        -0.706030         0.054941
 O         3.256244        -1.699175        -0.518135
 C         1.891673        -1.510360        -0.196321
 H        -0.549711         0.547198         0.683893
 H        -0.094984         1.273732        -0.869157
 H        -0.536263        -0.411124        -0.820131
 H         2.626264         0.168894        -1.966370
 H         2.059325         1.779443        -1.323071
 H         4.620535         1.499830        -0.489300
 H         4.121404         0.767212         1.720084
 H         5.180328        -0.915336         0.271703
 H         1.336903        -2.148645        -0.997781
 H         1.631035        -1.901582         0.756872
