19
Iteration:  2903
 C         0.060382         0.278460        -0.207831
 C         1.553917        -0.027478        -0.095162
 C         2.455996         0.472774        -1.241593
 C         3.809248         0.626528        -0.564927
 C         3.553490         0.595711         0.896018
 O         2.120136         0.645274         1.078449
 C         4.021992        -0.630394         0.186283
 O         3.180005        -1.674725        -0.270628
 C         1.773760        -1.520604        -0.092055
 H        -0.176480         0.741437        -1.147673
 H        -0.467206        -0.751874        -0.311999
 H        -0.362823         0.821830         0.612694
 H         2.579280        -0.257019        -2.026922
 H         2.122118         1.523010        -1.697997
 H         4.604718         1.118943        -1.170441
 H         3.970800         1.122507         1.711879
 H         5.050148        -1.088137         0.294793
 H         1.241230        -1.968483        -0.885722
 H         1.312194        -1.957362         1.005106
