19
Iteration:  2507charge 0 multiplicity 1
 C         0.139297         0.314913        -0.226935
 C         1.569228         0.054522        -0.196627
 C         2.499446         0.862570        -1.053771
 C         3.770996         0.678020        -0.399461
 C         3.430005         0.371085         1.022938
 O         1.994319         0.412806         1.168886
 C         3.963630        -0.719295         0.135322
 O         3.246234        -1.725439        -0.548617
 C         1.877645        -1.509042        -0.236548
 H        -0.086603         1.159982         0.373510
 H        -0.132187         0.470683        -1.235860
 H        -0.469063        -0.564841         0.206333
 H         2.509699         0.503484        -2.030041
 H         2.161400         2.022977        -1.100009
 H         4.646164         1.317092        -0.562251
 H         3.849378         1.029789         1.828183
 H         5.011403        -1.112945         0.263283
 H         1.327844        -2.208035        -1.060395
 H         1.746023        -1.889973         0.721605
