19
Iteration:  1033
 C         0.081893         0.200557        -0.262213
 C         1.570204         0.159210        -0.174253
 C         2.438482         1.412717        -0.123813
 C         3.837991         0.713928         0.130699
 C         3.347783        -0.235759         1.254549
 O         1.973300        -0.429905         1.164916
 C         3.990215        -0.729659        -0.049766
 O         3.214944        -1.557194        -0.927863
 C         2.038349        -0.776098        -1.236088
 H        -0.273188        -0.280926         0.680122
 H        -0.322519         1.381671        -0.134145
 H        -0.288198        -0.325342        -1.191925
 H         2.537989         1.917592        -1.108598
 H         2.123357         2.227825         0.563566
 H         4.773323         1.242644         0.341714
 H         3.694296        -0.380387         2.284636
 H         5.004399        -0.934807        -0.172838
 H         2.272690        -0.265304        -2.186274
 H         1.220787        -1.396085        -1.477865
