19
Iteration:  1183charge 0 multiplicity 1
 C         0.010695         0.398269        -0.267494
 C         1.589109         0.137772        -0.131202
 C         2.557164         1.267089        -0.349572
 C         3.781941         0.787485         0.256711
 C         3.304322        -0.326930         1.174845
 O         1.911215        -0.259101         1.224486
 C         4.041768        -0.708499        -0.031153
 O         3.377360        -1.312533        -1.115922
 C         1.931724        -1.230892        -0.984332
 H        -0.212941         1.403467         0.009230
 H        -0.134578         0.312376        -1.342613
 H        -0.622126        -0.297888         0.326513
 H         2.619887         1.506796        -1.456391
 H         2.240446         2.122393         0.353464
 H         4.566893         1.550506         0.391685
 H         3.818470        -0.449235         2.076079
 H         4.952239        -1.164389         0.080255
 H         1.432174        -1.302058        -2.034151
 H         1.540812        -2.077989        -0.299588
