19
Iteration:   517charge 0 multiplicity 1
 C         0.182221         0.379436        -0.181599
 C         1.623769         0.119132        -0.124403
 C         2.448794         1.349537         0.163176
 C         3.732313         0.695812         0.484719
 C         3.225591        -0.591904         1.173467
 O         1.830500        -0.700084         1.027055
 C         4.054439        -0.736767        -0.082319
 O         3.413329        -1.070289        -1.303030
 C         2.012977        -0.735966        -1.330336
 H        -0.187350         1.024494         0.634508
 H         0.029249         1.067288        -1.001421
 H        -0.510872        -0.520468        -0.426350
 H         2.467496         1.950754        -0.747503
 H         2.005117         2.066028         1.010801
 H         4.454983         1.266572         1.008227
 H         3.670787        -0.906459         2.072601
 H         5.065968        -1.244335         0.018822
 H         1.747395        -0.124382        -2.164168
 H         1.413526        -1.667683        -1.379443
