19
Iteration:  1442charge 0 multiplicity 1
 C         0.081224         0.323634        -0.083499
 C         1.562334         0.082045        -0.216420
 C         2.455079         1.362761        -0.584899
 C         3.717089         0.810765        -0.055839
 C         3.331389        -0.042200         1.191484
 O         1.965994        -0.312728         1.180358
 C         4.013649        -0.745282         0.036812
 O         3.254534        -1.663499        -0.644530
 C         2.118301        -1.035820        -1.110405
 H        -0.303458         1.363432        -0.036967
 H        -0.394630        -0.045567        -0.931922
 H        -0.397338        -0.046900         0.784720
 H         2.496407         1.583489        -1.568443
 H         2.155863         2.167099         0.152579
 H         4.712451         1.255032        -0.115319
 H         3.862393         0.032960         2.182423
 H         5.052553        -1.183299         0.110213
 H         2.141729        -0.578645        -2.146411
 H         1.212557        -1.664461        -1.262843
