19
Iteration:  3994
 C         0.043526         0.228456        -0.127483
 C         1.528493         0.052789        -0.149075
 C         2.278821         0.204295        -1.576947
 C         3.709846         0.138013        -1.035463
 C         3.590418         0.738476         0.299874
 O         2.195639         1.008568         0.575686
 C         4.062736        -0.683631         0.211471
 O         3.266066        -1.701879         0.722989
 C         1.827061        -1.311958         0.589706
 H        -0.397714         1.141688         0.403073
 H        -0.327229         0.371078        -1.108005
 H        -0.461319        -0.782016         0.187000
 H         2.045168        -0.519097        -2.297751
 H         2.024243         1.207473        -1.894582
 H         4.466198         0.299131        -1.837744
 H         4.211443         1.493172         0.806526
 H         5.110578        -0.756205         0.438665
 H         1.297170        -2.232401         0.278104
 H         1.579692        -1.146893         1.584633
