19
Iteration:  2538
 C        -0.069758         0.334720        -0.266041
 C         1.464416         0.040236        -0.115914
 C         2.537909         0.783742        -1.062952
 C         3.861530         0.768696        -0.395179
 C         3.447452         0.261855         1.024061
 O         2.021319         0.452529         1.123169
 C         4.051838        -0.706847         0.057089
 O         3.262667        -1.709664        -0.530966
 C         1.900777        -1.487742        -0.164013
 H        -0.355067         0.681676         0.737967
 H         0.046791         1.199168        -0.877907
 H        -0.692600        -0.485775        -0.804602
 H         2.686070         0.184804        -1.945278
 H         2.068026         1.790755        -1.205486
 H         4.634544         1.549147        -0.475909
 H         4.027195         0.713161         1.853885
 H         5.059882        -0.931522         0.294364
 H         1.345352        -2.159603        -0.919784
 H         1.722742        -2.002031         0.809703
