19
Iteration:   202
 C         0.025599         0.411255        -0.127714
 C         1.587496         0.129349        -0.116942
 C         2.537564         1.300844         0.239360
 C         3.704464         0.522708         0.785618
 C         3.178474        -0.858623         1.134855
 O         1.774268        -0.838217         0.950182
 C         4.096126        -0.715776        -0.106532
 O         3.533917        -0.699846        -1.445936
 C         2.047211        -0.545681        -1.458873
 H        -0.285506        -0.433429         0.469636
 H        -0.283845         1.288657         0.408851
 H        -0.512330         0.418794        -1.073647
 H         2.733096         1.970789        -0.618685
 H         2.156856         1.813012         1.120079
 H         4.525632         0.964331         1.310406
 H         3.559156        -1.503789         1.947504
 H         5.019071        -1.165751         0.014811
 H         1.899522         0.111757        -2.282688
 H         1.552458        -1.437410        -1.725618
