19
Iteration:  1806charge 0 multiplicity 1
 C         0.095618         0.299134        -0.064563
 C         1.579119         0.095265        -0.154011
 C         2.510706         1.270274        -0.788770
 C         3.755213         0.786528        -0.056461
 C         3.403900         0.041503         1.222389
 O         2.003228        -0.146203         1.167329
 C         3.999198        -0.707046         0.077977
 O         3.193782        -1.654197        -0.586838
 C         1.929820        -1.190537        -1.065586
 H        -0.187244         1.328989         0.068126
 H        -0.256553        -0.016316        -1.086344
 H        -0.301821        -0.356008         0.689835
 H         2.526493         1.132382        -1.831410
 H         2.263546         2.326654        -0.596495
 H         4.626513         1.382726        -0.031411
 H         3.942973         0.192395         2.109865
 H         5.080836        -1.041133         0.171924
 H         2.026618        -0.982359        -2.185314
 H         1.255906        -1.959259        -0.775104
