19
Iteration:  2151charge 0 multiplicity 1
 C         0.035669         0.290932        -0.242221
 C         1.591303         0.089366        -0.136396
 C         2.571845         0.961420        -0.937649
 C         3.779236         0.760965        -0.160044
 C         3.355525         0.152100         1.194262
 O         1.965847         0.174610         1.295801
 C         3.974184        -0.726299         0.028339
 O         3.277689        -1.573941        -0.782590
 C         1.948594        -1.363209        -0.537117
 H        -0.533302        -0.628159        -0.236940
 H        -0.264033         0.929063         0.619290
 H        -0.298435         0.990484        -1.100919
 H         2.578827         0.591828        -2.115839
 H         2.320673         2.002750        -1.083003
 H         4.634638         1.457294        -0.330671
 H         3.928490         0.240973         2.152483
 H         4.908330        -1.190669         0.239299
 H         1.425707        -1.836631        -1.409665
 H         1.743028        -1.793080         0.412410
