19
Iteration:  3176charge 0 multiplicity 1
 C         0.074849         0.300396        -0.219158
 C         1.513628         0.032319        -0.168353
 C         2.408466         0.434670        -1.305497
 C         3.798999         0.547767        -0.802187
 C         3.541617         0.707613         0.753001
 O         2.152144         0.673202         0.993418
 C         4.051166        -0.608477         0.099208
 O         3.213788        -1.742486         0.151263
 C         1.738958        -1.585832         0.096463
 H         0.014985         1.436812        -0.260906
 H        -0.354085        -0.091032        -1.221816
 H        -0.353276        -0.206882         0.600839
 H         2.444416        -0.260078        -2.162623
 H         2.033224         1.327082        -1.743501
 H         4.574021         1.107434        -1.386262
 H         4.108204         1.145920         1.590811
 H         5.041050        -0.969776         0.356487
 H         1.226492        -2.182491        -0.715148
 H         1.299327        -1.768532         1.069961
