19
Iteration:  2869
 C         0.109688         0.312398        -0.181893
 C         1.562933         0.065593        -0.161009
 C         2.363025         0.786610        -1.262292
 C         3.743247         0.597947        -0.652769
 C         3.458445         0.480919         0.819351
 O         2.049861         0.521660         1.060819
 C         4.075315        -0.705711         0.130215
 O         3.268144        -1.842955         0.041521
 C         1.877314        -1.481418        -0.182470
 H        -0.277114        -0.027555        -1.113071
 H        -0.395128        -0.248882         0.651283
 H        -0.313670         1.346434        -0.100025
 H         2.201290         0.360411        -2.287763
 H         2.215603         1.935699        -1.417591
 H         4.552968         1.282517        -1.042553
 H         4.101327         1.077253         1.491971
 H         5.161486        -0.983790         0.231506
 H         1.585634        -2.032242        -1.049257
 H         1.220552        -1.886584         0.772205
