19
Iteration:  4390charge 0 multiplicity 1
 C        -0.026881         0.290768        -0.085262
 C         1.513666        -0.051690        -0.215766
 C         2.317036        -0.072323        -1.574104
 C         3.841162         0.197762        -1.104857
 C         3.621271         0.799029         0.321912
 O         2.230368         0.952770         0.643968
 C         4.092360        -0.532218         0.203059
 O         3.207034        -1.552056         0.688411
 C         1.684352        -1.364926         0.632461
 H        -0.557802        -0.491229         0.286704
 H        -0.173553         1.161296         0.624075
 H        -0.410078         0.635437        -1.052761
 H         2.386310        -1.046464        -2.186521
 H         1.976547         0.732046        -2.183162
 H         4.639440         0.498092        -1.886922
 H         4.238256         1.591455         0.583365
 H         5.187715        -0.736835         0.344238
 H         1.343922        -2.285993         0.270161
 H         1.278640        -1.282328         1.638501
