19
Iteration:  1725charge 0 multiplicity 1
 C         0.136594         0.454510        -0.226824
 C         1.552105         0.001519        -0.120876
 C         2.584667         1.061998        -0.782628
 C         3.831759         0.815158         0.073086
 C         3.283555        -0.028243         1.187129
 O         1.904795        -0.111532         1.251589
 C         4.054411        -0.716912         0.051193
 O         3.279103        -1.312886        -1.020852
 C         1.883166        -1.423841        -0.635980
 H         0.000379         0.869619        -1.269757
 H        -0.500821        -0.388210        -0.048406
 H        -0.014372         1.258801         0.515537
 H         2.694659         0.715445        -1.851415
 H         2.114271         2.098160        -0.719376
 H         4.559751         1.611149         0.276048
 H         3.806066         0.093005         2.172796
 H         5.045927        -1.092687         0.164079
 H         1.301117        -1.762487        -1.602847
 H         1.550652        -2.227794        -0.009335
