19
Iteration:  2743
 C         0.035520         0.272513        -0.287350
 C         1.552655         0.096605        -0.104970
 C         2.412908         0.655294        -1.254206
 C         3.755553         0.702544        -0.527447
 C         3.468680         0.454620         0.954683
 O         2.092378         0.500862         1.218159
 C         4.047331        -0.725701         0.169918
 O         3.239232        -1.761633        -0.403871
 C         1.882957        -1.422179        -0.078407
 H        -0.461910         1.034146         0.348286
 H        -0.186765         0.673826        -1.318280
 H        -0.461626        -0.654128        -0.295686
 H         2.449655        -0.182556        -2.121849
 H         2.207718         1.604687        -1.649318
 H         4.635546         1.320840        -0.800230
 H         4.085263         0.933980         1.714563
 H         5.155667        -0.922027         0.312110
 H         1.142555        -1.947312        -0.767100
 H         1.680371        -1.729127         0.960007
