19
Iteration:   612
 C         0.078064         0.436179        -0.145362
 C         1.500934         0.082814        -0.139777
 C         2.443295         1.342878         0.030022
 C         3.758275         0.708510         0.525561
 C         3.290823        -0.569525         1.173588
 O         1.877524        -0.645170         0.985848
 C         4.075617        -0.660631        -0.095260
 O         3.484276        -1.193659        -1.208382
 C         1.971652        -0.798031        -1.287207
 H        -0.664803        -0.191043        -0.644481
 H        -0.303157         0.598125         0.821951
 H         0.009979         1.442917        -0.690766
 H         2.667255         1.877918        -0.891553
 H         2.073141         2.063247         0.720923
 H         4.480810         1.414054         0.935465
 H         3.527452        -1.087882         2.042591
 H         5.166371        -0.986749         0.006758
 H         1.938923        -0.147841        -2.238878
 H         1.311501        -1.733983        -1.393977
