19
Iteration:  1587
 C        -0.043826         0.374671        -0.135334
 C         1.547505         0.026332        -0.165193
 C         2.526748         1.222318        -0.601587
 C         3.840095         0.805868         0.062931
 C         3.370769        -0.074700         1.209174
 O         1.946478        -0.067932         1.148242
 C         4.039919        -0.750787         0.043011
 O         3.339366        -1.527769        -0.841061
 C         1.951280        -1.296769        -0.987143
 H        -0.386397         0.116335         0.835446
 H        -0.156179         1.508094        -0.207175
 H        -0.715303        -0.174659        -0.838419
 H         2.705123         1.339710        -1.635727
 H         2.254580         2.233112        -0.249379
 H         4.669865         1.587286         0.079566
 H         3.674906        -0.118804         2.286105
 H         5.034965        -1.038591         0.295232
 H         1.659084        -1.103216        -2.179133
 H         1.316102        -2.156376        -0.551711
