19
Iteration:  4164
 C         0.044924         0.469190        -0.161272
 C         1.488829        -0.039295        -0.140861
 C         2.292025        -0.082998        -1.461449
 C         3.658053         0.166901        -1.030516
 C         3.542700         0.825481         0.355877
 O         2.138688         1.029667         0.561419
 C         4.114236        -0.598962         0.234764
 O         3.319152        -1.755660         0.516641
 C         1.867370        -1.369778         0.679185
 H        -0.365939         0.404514         0.923818
 H        -0.085963         1.560100        -0.549204
 H        -0.572098        -0.163080        -0.781083
 H         2.185809        -0.910419        -2.158471
 H         2.114068         0.831297        -2.114413
 H         4.460474         0.454458        -1.726734
 H         4.067061         1.637696         0.887950
 H         5.171411        -0.711629         0.393725
 H         1.423863        -2.366152         0.385261
 H         1.601324        -1.190943         1.659346
