19
Iteration:  1417
 C         0.047895         0.306866        -0.259486
 C         1.522474         0.097328        -0.213262
 C         2.420970         1.335481        -0.358396
 C         3.814748         0.880152         0.007088
 C         3.455148        -0.106154         1.195938
 O         1.988692        -0.179998         1.136181
 C         4.091289        -0.718542        -0.025602
 O         3.242766        -1.683198        -0.687225
 C         1.964272        -1.160237        -1.062120
 H        -0.351882         1.345819        -0.586415
 H        -0.495338        -0.446748        -0.928631
 H        -0.424493         0.232235         0.739112
 H         2.508554         1.615795        -1.442108
 H         2.172384         2.142488         0.327056
 H         4.710147         1.557058         0.122785
 H         3.841995        -0.063978         2.203940
 H         5.037377        -1.117109        -0.120517
 H         1.889185        -0.896935        -2.120870
 H         1.027491        -1.837693        -0.921500
