19
Iteration:  1320
 C         0.082344         0.403807        -0.203109
 C         1.555548         0.077367        -0.124940
 C         2.549668         1.201363        -0.603871
 C         3.792315         0.787910         0.116870
 C         3.273962        -0.228983         1.230755
 O         1.899991        -0.256061         1.251205
 C         4.052121        -0.717049         0.052271
 O         3.372955        -1.338859        -1.077519
 C         1.929759        -1.207874        -0.894559
 H        -0.535208        -0.133671        -0.962568
 H        -0.387704         0.327497         0.736979
 H        -0.205143         1.410894        -0.405771
 H         2.796085         1.083141        -1.626499
 H         2.186375         2.228934        -0.246042
 H         4.486345         1.591322         0.346836
 H         3.753807        -0.213523         2.174124
 H         5.021159        -1.081071         0.237977
 H         1.474780        -1.205745        -1.942867
 H         1.632530        -1.941773        -0.116684
