19
Iteration:  1027charge 0 multiplicity 1
 C         0.066124         0.233478        -0.228641
 C         1.581610         0.136416        -0.167908
 C         2.446332         1.407498        -0.164471
 C         3.850227         0.738203         0.183330
 C         3.349883        -0.262213         1.274182
 O         1.917354        -0.409367         1.162403
 C         3.999630        -0.742572        -0.083565
 O         3.233890        -1.523921        -0.951998
 C         2.071022        -0.804987        -1.237807
 H        -0.336725        -0.194312         0.697429
 H        -0.336833         1.142191        -0.361804
 H        -0.383683        -0.310018        -1.026275
 H         2.448724         2.079021        -1.066005
 H         2.246970         2.188773         0.580576
 H         4.844673         1.193999         0.335934
 H         3.686478        -0.323970         2.291516
 H         5.071843        -1.047363        -0.315226
 H         2.151397        -0.326702        -2.243735
 H         1.223508        -1.603303        -1.300048
