19
Iteration:  3101charge 0 multiplicity 1
 C         0.132162         0.288931        -0.259074
 C         1.526060        -0.005257        -0.163673
 C         2.410582         0.553058        -1.334340
 C         3.757952         0.631968        -0.702074
 C         3.526214         0.621686         0.731614
 O         2.122900         0.663941         0.996097
 C         4.029867        -0.656649         0.217809
 O         3.201938        -1.830062        -0.060039
 C         1.802723        -1.522835         0.172862
 H        -0.337892        -0.150856        -1.237826
 H        -0.374058        -0.162121         0.659369
 H         0.044761         1.367666        -0.205115
 H         2.296887        -0.085580        -2.182780
 H         1.886455         1.597230        -1.537512
 H         4.588863         1.139767        -1.242857
 H         4.172937         1.171441         1.481557
 H         5.037029        -0.931678         0.535339
 H         1.119731        -2.256900        -0.526588
 H         1.562296        -1.595821         1.197607
