19
Iteration:  4998charge 0 multiplicity 1
 C         0.057286         0.258266        -0.105614
 C         1.508709         0.006839        -0.133952
 C         2.298324        -0.071850        -1.536663
 C         3.719582         0.084081        -1.049636
 C         3.589875         0.859420         0.254828
 O         2.196721         1.076802         0.511200
 C         4.092153        -0.654542         0.201743
 O         3.213155        -1.629756         0.747432
 C         1.817991        -1.279542         0.611496
 H        -0.397225         0.539261        -1.050969
 H        -0.487366        -0.644996         0.381525
 H        -0.052798         1.181985         0.603244
 H         2.033408        -0.968125        -2.073606
 H         1.968433         0.827856        -2.080432
 H         4.618819         0.306374        -1.702020
 H         4.274094         1.693176         0.447601
 H         5.164463        -0.807785         0.479725
 H         1.318206        -2.102625         0.152103
 H         1.418258        -1.225670         1.679442
