19
Iteration:  4556
 C         0.066716         0.278496        -0.231804
 C         1.492817        -0.100574        -0.207534
 C         2.290693        -0.199459        -1.448818
 C         3.705538         0.206788        -1.106070
 C         3.613205         0.810396         0.273549
 O         2.252972         1.033324         0.555895
 C         4.027033        -0.591058         0.186828
 O         3.186330        -1.625934         0.651224
 C         1.858481        -1.177412         0.814336
 H        -0.222632         1.367231        -0.055688
 H        -0.496211        -0.016575        -1.231914
 H        -0.403012        -0.137490         0.641225
 H         2.339517        -1.224241        -1.869118
 H         1.960408         0.558617        -2.196304
 H         4.453430         0.496259        -1.784462
 H         4.273972         1.672557         0.662328
 H         5.036411        -0.881953         0.341569
 H         1.210761        -2.043037         1.014176
 H         1.589349        -0.654434         1.676269
