19
Iteration:   496
 C         0.000725         0.476529        -0.175280
 C         1.531080         0.132541        -0.143339
 C         2.446722         1.310227         0.095174
 C         3.772858         0.715346         0.546094
 C         3.316066        -0.653812         1.264020
 O         1.925215        -0.796753         0.993930
 C         4.039206        -0.625267        -0.112720
 O         3.365299        -1.232821        -1.189439
 C         2.101078        -0.607903        -1.429373
 H        -0.235713         1.422250         0.411434
 H        -0.381867         0.662516        -1.182224
 H        -0.541804        -0.456100         0.249385
 H         2.456034         2.038852        -0.705465
 H         1.976504         1.917012         1.003202
 H         4.599219         1.334361         0.794338
 H         3.609731        -0.937981         2.236769
 H         5.144154        -0.853356        -0.216036
 H         2.153862         0.119951        -2.307188
 H         1.497464        -1.419347        -1.842727
