19
Iteration:  1086
 C         0.057450         0.386546        -0.062050
 C         1.555839         0.107735        -0.173198
 C         2.453286         1.386531        -0.380477
 C         3.774354         0.816135         0.226278
 C         3.335785        -0.270082         1.224044
 O         1.928178        -0.479990         1.091542
 C         4.006561        -0.702346         0.014481
 O         3.313028        -1.511507        -0.906592
 C         2.050166        -0.954479        -1.277956
 H        -0.390872        -0.306308        -0.721235
 H        -0.191050         0.287235         1.000047
 H        -0.079068         1.356959        -0.540935
 H         2.596897         1.706305        -1.392317
 H         2.187320         2.062657         0.482116
 H         4.590825         1.534081         0.338400
 H         3.610466        -0.340104         2.279850
 H         4.978747        -1.084787         0.108710
 H         2.145165        -0.552823        -2.337518
 H         1.305542        -1.706132        -1.173067
