19
Iteration:  4842charge 0 multiplicity 1
 C         0.041449         0.269817        -0.103247
 C         1.560019         0.056742        -0.087183
 C         2.222735        -0.078249        -1.483712
 C         3.699435        -0.110925        -1.124317
 C         3.554175         0.878597         0.109145
 O         2.297482         1.045690         0.531752
 C         4.046099        -0.521105         0.273178
 O         3.216906        -1.504978         0.931857
 C         1.854583        -1.389033         0.479687
 H        -0.239263         1.261604         0.462104
 H        -0.276928         0.627871        -1.031375
 H        -0.458132        -0.656395         0.260073
 H         1.914247        -0.877887        -2.109611
 H         2.029418         0.913005        -1.959629
 H         4.276498        -0.182839        -1.992216
 H         4.228104         1.754700         0.310358
 H         5.042898        -0.680044         0.574917
 H         1.569748        -2.129165        -0.229484
 H         1.369043        -1.564388         1.426637
