19
Iteration:  1384
 C         0.078165         0.378959        -0.287742
 C         1.594341         0.073211        -0.084192
 C         2.515459         1.233144        -0.535940
 C         3.780965         0.809442         0.027514
 C         3.354457        -0.136765         1.235508
 O         1.907643        -0.260563         1.304134
 C         4.080322        -0.691885         0.011698
 O         3.297901        -1.447479        -0.972365
 C         1.908616        -1.175075        -0.906155
 H         0.089832         1.078597        -1.142206
 H        -0.369347        -0.597386        -0.604148
 H        -0.443837         0.596174         0.641770
 H         2.491833         1.048442        -1.599620
 H         2.146912         2.226017        -0.454776
 H         4.609699         1.513482         0.118913
 H         3.780831        -0.107374         2.200361
 H         5.064607        -1.050416         0.088276
 H         1.588123        -0.909926        -1.913924
 H         1.421399        -2.015214        -0.305203
