19
Iteration:  3118
 C         0.017864         0.334491        -0.179794
 C         1.551985        -0.040583        -0.145730
 C         2.416664         0.521331        -1.342813
 C         3.850380         0.493126        -0.720924
 C         3.428123         0.570768         0.833105
 O         2.036697         0.800362         0.928590
 C         4.023581        -0.654854         0.100653
 O         3.260559        -1.813305        -0.093198
 C         1.912378        -1.525515         0.212936
 H        -0.296591         0.478006        -1.157217
 H        -0.722890        -0.314565         0.279381
 H        -0.152442         1.388638         0.164180
 H         2.457307        -0.126899        -2.294870
 H         2.245095         1.521124        -1.434098
 H         4.674012         1.079425        -1.026481
 H         3.890085         1.161870         1.618329
 H         5.016234        -1.029342         0.307045
 H         1.397046        -2.169152        -0.368577
 H         1.743279        -1.799553         1.327626
