19
Iteration:  2188charge 0 multiplicity 1
 C         0.036243         0.331135        -0.197792
 C         1.506748         0.033979        -0.237290
 C         2.458711         1.051676        -0.842946
 C         3.799736         0.807700        -0.248035
 C         3.474586         0.237826         1.086917
 O         2.031711         0.150156         1.203162
 C         4.047299        -0.684299         0.033008
 O         3.234044        -1.774226        -0.423507
 C         1.919906        -1.382189        -0.742755
 H        -0.589654        -0.130441        -1.060658
 H        -0.338555         0.018262         0.802779
 H         0.001708         1.375749        -0.335898
 H         2.448502         1.107673        -1.857439
 H         2.136297         1.974986        -0.296947
 H         4.648483         1.464478        -0.266999
 H         3.943061         0.606567         1.974490
 H         5.088150        -1.036355         0.178405
 H         1.609641        -1.567953        -1.751494
 H         1.300027        -2.229059        -0.202409
