19
Iteration:   847charge 0 multiplicity 1
 C         0.032971         0.445283        -0.085244
 C         1.555726         0.102767        -0.233785
 C         2.409574         1.429109        -0.114131
 C         3.725022         0.788891         0.312539
 C         3.306801        -0.369242         1.234118
 O         1.889102        -0.709816         1.029824
 C         4.135771        -0.720388        -0.049168
 O         3.311277        -1.411664        -0.949517
 C         2.118590        -0.826301        -1.372333
 H        -0.634311        -0.040141        -0.726386
 H        -0.139490         0.399152         1.067394
 H         0.004721         1.501688        -0.137254
 H         2.391846         2.068095        -1.027707
 H         1.977917         2.077675         0.706729
 H         4.499259         1.515969         0.442579
 H         3.648640        -0.516384         2.232223
 H         5.191013        -1.160068        -0.066852
 H         2.400204        -0.212221        -2.305158
 H         1.454338        -1.567645        -1.920841
