19
Iteration:  3751charge 0 multiplicity 1
 C         0.021930         0.170772        -0.249914
 C         1.529247         0.044323        -0.076054
 C         2.371334         0.178008        -1.385131
 C         3.820923         0.305965        -0.941041
 C         3.579117         0.776451         0.418682
 O         2.192418         1.029352         0.708969
 C         4.056120        -0.679715         0.140503
 O         3.126214        -1.786625         0.276276
 C         1.834458        -1.337420         0.668097
 H        -0.455421         0.577396         0.653219
 H        -0.195578         0.956593        -1.042579
 H        -0.433854        -0.738001        -0.441307
 H         2.175133        -0.648851        -2.030761
 H         1.984552         1.147985        -1.821232
 H         4.561966         0.634680        -1.689572
 H         4.170037         1.420402         0.978849
 H         5.051960        -0.884885         0.608966
 H         1.167124        -2.238259         0.269520
 H         1.741096        -1.231486         1.723751
