19
Iteration:  3501charge 0 multiplicity 1
 C         0.054824         0.140443        -0.165563
 C         1.541027         0.046960        -0.090726
 C         2.411740         0.211803        -1.479630
 C         3.836018         0.423172        -0.940624
 C         3.616146         0.760334         0.573741
 O         2.203073         0.900658         0.880353
 C         3.974857        -0.586258         0.217793
 O         3.128272        -1.772268         0.248993
 C         1.747213        -1.368269         0.358367
 H        -0.575799        -0.591902         0.324588
 H        -0.204643         1.244458         0.220329
 H        -0.171591         0.172380        -1.225810
 H         2.487816        -0.704882        -2.124170
 H         1.981563         1.076056        -2.013412
 H         4.672551         0.562509        -1.611317
 H         4.150710         1.567822         1.148768
 H         4.973565        -0.965840         0.287766
 H         1.092829        -2.069343        -0.264648
 H         1.531210        -1.504098         1.392262
