19
Iteration:   485charge 0 multiplicity 1
 C        -0.040321         0.452807        -0.118875
 C         1.549124         0.113908        -0.164436
 C         2.460124         1.325202         0.147046
 C         3.722434         0.699473         0.550825
 C         3.353218        -0.620152         1.192102
 O         1.926912        -0.789707         0.938208
 C         4.109175        -0.612221        -0.076302
 O         3.304926        -1.268758        -1.109557
 C         2.117124        -0.573757        -1.505476
 H        -0.332979         1.489313         0.176338
 H        -0.365666         0.287927        -1.163539
 H        -0.728678        -0.276530         0.535551
 H         2.658889         1.696196        -0.840773
 H         2.042028         2.175147         0.855459
 H         4.493716         1.345601         0.883895
 H         3.666157        -1.030811         2.090192
 H         5.203415        -0.953069        -0.161986
 H         2.413036         0.350948        -2.074252
 H         1.406661        -1.246002        -2.008237
