19
Iteration:   798charge 0 multiplicity 1
 C         0.030532         0.306699        -0.286670
 C         1.608737         0.118636        -0.091421
 C         2.596707         1.363495        -0.158356
 C         3.803459         0.680243         0.462388
 C         3.242652        -0.508988         1.186020
 O         1.870826        -0.509072         1.229399
 C         3.976041        -0.740287        -0.075481
 O         3.391887        -1.101030        -1.283079
 C         1.972873        -0.836963        -1.163046
 H        -0.327835        -0.646639         0.240243
 H        -0.326408         1.218494         0.068078
 H        -0.277211         0.187685        -1.411671
 H         2.688128         1.632577        -1.213344
 H         2.218345         2.221971         0.357110
 H         4.573706         1.202001         1.056900
 H         3.822555        -0.805860         2.133098
 H         4.947355        -1.169573         0.046828
 H         1.612833        -0.561828        -2.116251
 H         1.510202        -1.761806        -0.931479
