19
Iteration:   924
 C         0.072962         0.305545        -0.264873
 C         1.571886         0.126336        -0.079100
 C         2.527171         1.356080        -0.253066
 C         3.832820         0.727277         0.386779
 C         3.253536        -0.482161         1.212321
 O         1.820911        -0.378424         1.231368
 C         4.030756        -0.774989        -0.067258
 O         3.397606        -1.167318        -1.310344
 C         1.998304        -0.954007        -1.074235
 H        -0.148302         1.336431        -0.565913
 H        -0.445201        -0.401812        -1.057319
 H        -0.366315         0.206745         0.741688
 H         2.704431         1.660644        -1.308558
 H         2.100517         2.065482         0.473076
 H         4.664182         1.255598         0.818011
 H         3.735886        -0.701825         2.226531
 H         5.004656        -1.268701         0.056850
 H         1.606336        -0.875935        -2.113964
 H         1.614521        -1.842790        -0.486036
