19
Iteration:  3596
 C        -0.034565         0.238660        -0.152522
 C         1.563992         0.054253        -0.120688
 C         2.346688         0.167818        -1.452336
 C         3.755641         0.306043        -1.006672
 C         3.646097         0.743110         0.545479
 O         2.216434         0.932902         0.848874
 C         4.006148        -0.633310         0.159668
 O         3.179344        -1.676098         0.495323
 C         1.843668        -1.394651         0.243491
 H        -0.304651         0.007129        -1.147964
 H        -0.434764        -0.544655         0.516751
 H        -0.511477         1.186851         0.154985
 H         1.948381        -0.715081        -1.872877
 H         2.127290         1.049914        -2.211990
 H         4.576356         0.587899        -1.638533
 H         4.307909         1.522116         0.972957
 H         5.026638        -0.989034         0.300501
 H         1.491172        -2.056897        -0.438872
 H         1.333924        -1.556584         1.150681
