19
Iteration:   491charge 0 multiplicity 1
 C        -0.032841         0.473311        -0.128767
 C         1.546924         0.146780        -0.163696
 C         2.462259         1.298923         0.142441
 C         3.745653         0.719186         0.543419
 C         3.328911        -0.658867         1.250238
 O         1.930326        -0.791839         0.965764
 C         4.079260        -0.605754        -0.101952
 O         3.336159        -1.253891        -1.156562
 C         2.110296        -0.613283        -1.481285
 H        -0.322856         1.463678         0.184452
 H        -0.464171         0.519525        -1.157774
 H        -0.614947        -0.363416         0.239005
 H         2.506055         1.889650        -0.833558
 H         2.020925         1.983886         0.860444
 H         4.605265         1.404430         0.804630
 H         3.682343        -0.984628         2.277289
 H         5.099393        -0.879256        -0.229336
 H         2.268096         0.318994        -2.048453
 H         1.488960        -1.418820        -1.918524
