19
Iteration:  4664
 C         0.095138         0.366940        -0.167392
 C         1.584467        -0.056856        -0.079935
 C         2.192552        -0.138584        -1.549458
 C         3.558486         0.013707        -1.135360
 C         3.586837         0.873579         0.135952
 O         2.289801         1.023943         0.529337
 C         4.019404        -0.543195         0.264171
 O         3.285442        -1.470246         0.931729
 C         1.839514        -1.423768         0.603197
 H        -0.382499         0.169105         0.782795
 H         0.003668         1.450734        -0.574887
 H        -0.367522        -0.248051        -0.922726
 H         1.999333        -1.092144        -2.086316
 H         1.911638         0.657466        -2.174348
 H         4.427226         0.211308        -1.765251
 H         4.200605         1.729617         0.396687
 H         5.091026        -0.769616         0.408029
 H         1.520405        -2.357875         0.000849
 H         1.302365        -1.323105         1.596471
