19
Iteration:  4837
 C         0.053346         0.318873        -0.080669
 C         1.547421         0.037844        -0.147773
 C         2.244070        -0.066727        -1.509155
 C         3.682331        -0.092640        -1.108893
 C         3.600920         0.888945         0.110734
 O         2.257745         1.014005         0.568126
 C         4.040359        -0.584929         0.234403
 O         3.241578        -1.476204         0.946715
 C         1.847975        -1.367201         0.513957
 H        -0.321126         1.072240         0.531663
 H        -0.287474         0.561874        -1.184298
 H        -0.427913        -0.629848         0.143888
 H         1.807727        -0.997527        -2.058175
 H         1.996187         0.865597        -2.023607
 H         4.359520        -0.111884        -2.045162
 H         4.172613         1.756515         0.341977
 H         5.136448        -0.575729         0.557605
 H         1.559376        -2.227196        -0.208441
 H         1.247422        -1.538855         1.450207
