19
Iteration:  2524
 C         0.059199         0.348314        -0.270849
 C         1.564015        -0.044392        -0.171536
 C         2.471018         0.850633        -1.134844
 C         3.853857         0.729011        -0.373060
 C         3.392355         0.306231         1.066226
 O         2.001547         0.457758         1.144909
 C         4.041727        -0.690670         0.075395
 O         3.273040        -1.699881        -0.565642
 C         1.885596        -1.526169        -0.133973
 H        -0.272575         0.853820         0.713268
 H        -0.313930         1.030509        -1.108170
 H        -0.656165        -0.474337        -0.286565
 H         2.405001         0.594699        -2.279173
 H         2.203329         1.846781        -1.130736
 H         4.662647         1.381480        -0.690293
 H         3.799137         0.264728         2.064483
 H         4.982980        -1.111873         0.358252
 H         1.248809        -2.019955        -0.745353
 H         1.755829        -1.805756         1.011238
