19
Iteration:  2531
 C        -0.027727         0.330017        -0.274611
 C         1.508490        -0.030139        -0.141312
 C         2.504742         0.820578        -1.103297
 C         3.867274         0.764423        -0.401815
 C         3.434708         0.264638         1.043396
 O         2.015855         0.462216         1.128186
 C         4.029103        -0.683042         0.065350
 O         3.283781        -1.711915        -0.552295
 C         1.890513        -1.483819        -0.113785
 H        -0.233419         0.744907         0.680903
 H        -0.072139         1.163799        -1.001696
 H        -0.777907        -0.414622        -0.498109
 H         2.561663         0.384714        -2.100158
 H         2.186034         1.945028        -1.170781
 H         4.641537         1.512531        -0.567892
 H         3.737411         0.421201         2.099655
 H         5.039557        -1.195970         0.339578
 H         1.229298        -2.072484        -0.870114
 H         1.828294        -1.924322         0.851737
