19
Iteration:  3577charge 0 multiplicity 1
 C         0.029549         0.301100        -0.141697
 C         1.554735        -0.034475        -0.161289
 C         2.301729         0.158171        -1.469145
 C         3.742313         0.381203        -0.912323
 C         3.593202         0.737826         0.517280
 O         2.202207         0.899465         0.761969
 C         4.111800        -0.599307         0.210406
 O         3.235347        -1.736971         0.359787
 C         1.736589        -1.408253         0.402074
 H        -0.499445        -0.132377        -0.984848
 H        -0.533922         0.106426         0.874028
 H        -0.046060         1.363452        -0.247919
 H         2.465179        -0.667734        -2.180605
 H         1.965614         1.026177        -2.087989
 H         4.506412         0.768569        -1.568920
 H         4.095352         1.484550         1.228149
 H         5.105271        -0.887898         0.399348
 H         1.292333        -2.146618        -0.343326
 H         1.235122        -1.573407         1.501168
