19
Iteration:  3097
 C         0.127538         0.263985        -0.272665
 C         1.556912         0.009102        -0.207400
 C         2.358651         0.543824        -1.319033
 C         3.764560         0.655710        -0.710206
 C         3.551133         0.629847         0.735570
 O         2.148811         0.641103         1.041710
 C         4.029955        -0.636249         0.216358
 O         3.184616        -1.830217        -0.038095
 C         1.780630        -1.503376         0.131342
 H        -0.361681        -0.159007        -1.108062
 H        -0.367940        -0.084010         0.689049
 H        -0.054562         1.388094        -0.420876
 H         2.368409        -0.229012        -2.195978
 H         1.981405         1.475601        -1.476192
 H         4.597750         1.081954        -1.192835
 H         4.143647         1.233679         1.430710
 H         4.996792        -1.026740         0.465414
 H         1.223528        -2.170804        -0.500683
 H         1.526141        -1.670562         1.240720
