19
Iteration:  2585charge 0 multiplicity 1
 C         0.085823         0.354756        -0.132146
 C         1.537252         0.005225        -0.161681
 C         2.455254         0.818736        -1.150348
 C         3.798119         0.725634        -0.471725
 C         3.440892         0.470958         0.954950
 O         2.057945         0.366325         1.141091
 C         4.040416        -0.681042         0.080233
 O         3.241853        -1.767019        -0.216738
 C         1.828690        -1.514415        -0.408805
 H        -0.431344        -0.495201         0.220909
 H        -0.122830         1.235667         0.454088
 H        -0.116611         0.533190        -1.184057
 H         2.445199         0.375142        -2.087338
 H         2.195111         1.927090        -1.118928
 H         4.653361         1.337059        -0.731451
 H         3.866877         0.859160         1.870206
 H         5.075581        -1.081361         0.301106
 H         1.479874        -1.956492        -1.459717
 H         1.338706        -2.122460         0.297910
