19
Iteration:  3786
 C         0.037535         0.386064        -0.172580
 C         1.520539        -0.014279        -0.138584
 C         2.315191         0.031777        -1.473612
 C         3.716773         0.284476        -1.005622
 C         3.567039         0.842900         0.441961
 O         2.196325         0.911801         0.783990
 C         4.056472        -0.599757         0.125833
 O         3.245896        -1.735485         0.533976
 C         1.831305        -1.384147         0.419245
 H        -0.387125        -0.092871         0.768723
 H        -0.011379         1.455340        -0.024230
 H        -0.524022         0.215226        -1.060233
 H         2.255560        -1.020125        -1.920120
 H         2.060236         0.774232        -2.281744
 H         4.550030         0.380018        -1.691023
 H         4.125199         1.549396         1.030518
 H         5.127825        -0.699207         0.441594
 H         1.237222        -2.098033        -0.228678
 H         1.376850        -1.470577         1.402901
