19
Iteration:  4093charge 0 multiplicity 1
 C         0.258095         0.254867        -0.381411
 C         1.442460        -0.187024         0.447440
 C         1.115140        -0.819302         1.842066
 C         2.593487        -1.368575         2.337854
 C         3.854550        -0.742923         1.482281
 C         3.634451         0.458963         0.514679
 O         2.312638         0.961412         0.426878
 C         3.561939        -0.940918        -0.054849
 O         2.177791        -1.264333        -0.214891
 H        -0.531132         0.828523         0.202723
 H         0.652758         0.760610        -1.227340
 H        -0.368917        -0.635205        -0.713150
 H         0.831388        -0.099243         2.668307
 H         0.385706        -1.496921         1.593755
 H         2.749422        -1.128085         3.447770
 H         2.516773        -2.439452         2.122460
 H         4.903392        -0.687245         1.726884
 H         4.330809         1.276743         0.294855
 H         4.219386        -1.454965        -0.675786
