19
Iteration:  4771
 C         0.085510         0.272283        -0.279028
 C         1.444064        -0.202112         0.337581
 C         1.229244        -0.790167         1.820736
 C         2.605706        -1.243655         2.420560
 C         3.722044        -0.815074         1.523837
 C         3.667275         0.392440         0.593975
 O         2.338972         0.896463         0.526502
 C         3.554081        -0.968164        -0.014286
 O         2.289725        -1.205876        -0.552731
 H        -0.654897         0.764267         0.377783
 H         0.156210         0.885089        -1.169133
 H        -0.527242        -0.596631        -0.591421
 H         0.945502         0.188106         2.405705
 H         0.451617        -1.502996         1.768014
 H         2.791162        -0.890094         3.435516
 H         2.691520        -2.260664         2.508347
 H         4.701940        -1.134772         1.921203
 H         4.483063         1.136068         0.560487
 H         4.269513        -1.446926        -0.560425
