19
Iteration:   502charge 0 multiplicity 1
 C         0.138086         0.118744        -0.341896
 C         1.449204        -0.206968         0.444365
 C         1.256222        -1.247807         1.561577
 C         2.594817        -1.215792         2.325561
 C         3.733553        -0.961211         1.415582
 C         3.590158         0.480839         0.765732
 O         2.224236         0.923454         0.793227
 C         3.622337        -0.686803        -0.119217
 O         2.322688        -0.906739        -0.509850
 H        -0.402883         0.901141         0.234921
 H         0.417674         0.495985        -1.348965
 H        -0.399683        -0.864699        -0.225103
 H         0.493992        -0.817230         2.181268
 H         1.069839        -2.248626         1.170781
 H         2.578347        -0.299469         3.037529
 H         2.621077        -2.129535         3.114845
 H         4.825569        -1.237696         1.894905
 H         4.277405         1.337506         0.889021
 H         4.214072        -0.828698        -1.017103
