19
Iteration:   229
 C         0.182982         0.143232        -0.391321
 C         1.379002        -0.201156         0.416172
 C         1.278555        -1.055106         1.746563
 C         2.711537        -1.516091         2.310341
 C         3.831548        -0.875125         1.451630
 C         3.525689         0.538497         0.771416
 O         2.161759         1.022409         0.586583
 C         3.556126        -0.785632        -0.008334
 O         2.281568        -0.958578        -0.444063
 H        -0.647672         0.656428         0.107756
 H         0.547180         0.847463        -1.089523
 H        -0.173884        -0.667526        -0.947002
 H         0.735387        -0.501425         2.497698
 H         0.762663        -1.983612         1.380212
 H         2.918883        -1.104501         3.356275
 H         2.778479        -2.581482         2.268092
 H         4.840943        -1.145014         1.762852
 H         4.329887         1.378649         0.788937
 H         4.282010        -0.952271        -0.873948
