19
Iteration:  2150
 C         0.205110         0.339576        -0.290440
 C         1.438886        -0.246640         0.365832
 C         1.266377        -1.249683         1.618656
 C         2.612189        -1.091870         2.385879
 C         3.766324        -0.835461         1.440630
 C         3.586830         0.453996         0.690184
 O         2.254796         0.869139         0.744814
 C         3.558247        -0.864734        -0.074394
 O         2.266371        -1.073443        -0.488169
 H        -0.335267         1.055183         0.391810
 H         0.383277         0.793338        -1.255461
 H        -0.544206        -0.490767        -0.624841
 H         0.304599        -0.927478         2.046843
 H         1.050225        -2.358160         1.284887
 H         2.504070        -0.186681         3.107437
 H         2.777193        -1.933918         2.965669
 H         4.755910        -0.991179         1.752510
 H         4.364990         1.261553         0.493828
 H         4.252573        -1.076270        -0.814865
