19
Iteration:  4084
 C         0.246042         0.232401        -0.407423
 C         1.423167        -0.240559         0.441354
 C         1.211599        -0.814844         1.851325
 C         2.631384        -1.348320         2.343032
 C         3.783937        -0.766778         1.487257
 C         3.569766         0.461444         0.537401
 O         2.337473         0.953555         0.417706
 C         3.532450        -0.912474        -0.028666
 O         2.188813        -1.214674        -0.246272
 H        -0.370990         0.969648         0.225723
 H         0.691345         0.874236        -1.121965
 H        -0.230275        -0.631281        -0.973383
 H         0.803385         0.003379         2.527651
 H         0.417402        -1.601692         1.910356
 H         2.733417        -1.048920         3.421527
 H         2.633301        -2.466819         2.347434
 H         4.756460        -0.986363         1.964787
 H         4.400076         1.008978         0.220370
 H         4.022418        -1.333045        -0.869909
