19
Iteration:  4713charge 0 multiplicity 1
 C         0.207711         0.220880        -0.434661
 C         1.464521        -0.195051         0.455116
 C         1.277178        -0.812065         1.849849
 C         2.616924        -1.350625         2.448712
 C         3.820095        -0.866804         1.486058
 C         3.625893         0.484520         0.633694
 O         2.312859         0.990020         0.423388
 C         3.475134        -0.965447        -0.058107
 O         2.137803        -1.130878        -0.357648
 H        -0.165480         1.225791        -0.129290
 H         0.663979         0.284169        -1.425255
 H        -0.477620        -0.635119        -0.509363
 H         0.776653        -0.261896         2.620294
 H         0.496496        -1.653470         1.518033
 H         2.864977        -1.043296         3.428575
 H         2.560284        -2.497781         2.443718
 H         4.798273        -1.099540         1.917035
 H         4.400230         1.231549         0.520491
 H         4.077314        -1.533708        -0.917372
