19
Iteration:  3009
 C         0.165721         0.125306        -0.328057
 C         1.460236        -0.232092         0.386218
 C         1.212129        -1.028906         1.718048
 C         2.627855        -1.213359         2.431372
 C         3.746043        -0.805171         1.484654
 C         3.665317         0.394034         0.561199
 O         2.328275         0.994115         0.612898
 C         3.543675        -0.935819        -0.033508
 O         2.212602        -1.002874        -0.487214
 H        -0.664127         0.361739         0.383083
 H         0.300175         0.856560        -1.057434
 H        -0.338068        -0.706002        -0.882181
 H         0.688314        -0.491412         2.485703
 H         0.641854        -1.914085         1.512908
 H         2.592875        -0.377345         3.256279
 H         2.702161        -2.177239         2.895618
 H         4.768867        -0.811244         1.797676
 H         4.456624         1.177957         0.684405
 H         4.206584        -1.479841        -0.645394
