19
Iteration:  4202
 C         0.200356         0.285400        -0.346622
 C         1.412660        -0.199725         0.389894
 C         1.133941        -0.941052         1.716233
 C         2.623872        -1.114341         2.349721
 C         3.803022        -0.739504         1.493252
 C         3.655755         0.360271         0.511210
 O         2.357715         0.973959         0.598101
 C         3.544224        -1.067814         0.010307
 O         2.192302        -1.238696        -0.351091
 H        -0.399048         1.021828         0.257521
 H         0.423583         0.736612        -1.275030
 H        -0.438789        -0.588565        -0.643305
 H         0.584593        -0.448244         2.619489
 H         0.633645        -1.803024         1.395050
 H         2.840664        -0.435517         3.294182
 H         2.818368        -2.170109         2.579174
 H         4.757312        -0.964677         2.005468
 H         4.260500         1.185962         0.182412
 H         4.291158        -1.359407        -0.766997
