19
Iteration:  3467charge 0 multiplicity 1
 C         0.150819         0.158602        -0.263889
 C         1.415887        -0.300401         0.356942
 C         1.257640        -0.886062         1.695160
 C         2.606871        -1.125778         2.432483
 C         3.749645        -0.943787         1.460745
 C         3.664325         0.443646         0.624822
 O         2.266261         0.906036         0.588033
 C         3.605692        -0.890796        -0.010679
 O         2.192127        -1.073171        -0.549882
 H         0.050706         1.076515         0.267492
 H         0.429409         0.216451        -1.348187
 H        -0.431532        -0.707059        -0.039560
 H         0.685161        -0.134268         2.308885
 H         0.696139        -1.741439         1.726042
 H         2.841473        -0.255800         3.086960
 H         2.447978        -2.040416         3.069962
 H         4.785694        -1.229807         1.660465
 H         4.341360         1.352860         0.761654
 H         4.461929        -1.388453        -0.575148
