19
Iteration:  3215
 C         0.172118         0.138470        -0.218708
 C         1.450624        -0.216309         0.327176
 C         1.178489        -0.810508         1.702825
 C         2.575655        -1.270742         2.462645
 C         3.738138        -0.788631         1.488270
 C         3.629253         0.425496         0.640663
 O         2.288641         0.862934         0.518899
 C         3.626918        -0.923511        -0.015908
 O         2.260739        -1.079585        -0.531120
 H        -0.462061         0.450089         0.629647
 H         0.195775         0.941893        -0.923267
 H        -0.215294        -0.814508        -0.619572
 H         0.886285         0.203667         2.324398
 H         0.560094        -1.679479         1.769296
 H         2.729077        -0.608195         3.286473
 H         2.608383        -2.356165         2.669315
 H         4.804912        -1.084979         1.673406
 H         4.342446         1.179050         0.532761
 H         4.363867        -1.474575        -0.713195
