19
Iteration:   291
 C         0.048206         0.273142        -0.177355
 C         1.502479        -0.263238         0.349573
 C         1.346367        -1.274752         1.549658
 C         2.574788        -1.123392         2.389932
 C         3.753427        -0.888154         1.476997
 C         3.603337         0.412165         0.816022
 O         2.189593         0.854988         0.740862
 C         3.622730        -0.752919        -0.119202
 O         2.327537        -0.954995        -0.648844
 H        -0.377147         1.100026         0.483781
 H         0.248611         0.687436        -1.223120
 H        -0.621537        -0.607038        -0.144613
 H         0.400580        -1.185292         2.036189
 H         1.270151        -2.297779         1.201184
 H         2.444861        -0.296363         3.012882
 H         2.751106        -1.902755         3.123277
 H         4.679918        -1.056268         1.853950
 H         4.286548         1.343346         0.859079
 H         4.287362        -0.837496        -1.020435
