19
Iteration:   237charge 0 multiplicity 1
 C         0.164943         0.110116        -0.382581
 C         1.453941        -0.173641         0.464481
 C         1.256251        -1.047834         1.737519
 C         2.702810        -1.449610         2.359066
 C         3.805950        -0.865050         1.481657
 C         3.531308         0.465504         0.736231
 O         2.212298         0.986013         0.655594
 C         3.570332        -0.736899        -0.050275
 O         2.223855        -0.937822        -0.544473
 H        -0.641678         0.592740         0.194754
 H         0.588483         0.704264        -1.271867
 H        -0.054644        -0.857306        -0.891701
 H         0.549731        -0.570237         2.414089
 H         0.946924        -2.008375         1.292480
 H         2.712416        -1.088344         3.421618
 H         2.760390        -2.543873         2.319659
 H         4.820495        -1.003094         1.609197
 H         4.260278         1.310247         0.908457
 H         4.305889        -0.984163        -0.838319
