19
Iteration:  4837charge 0 multiplicity 1
 C         0.208950         0.197884        -0.363085
 C         1.414136        -0.234248         0.435794
 C         1.190829        -0.782278         1.744630
 C         2.655734        -1.131463         2.419789
 C         3.799608        -0.897541         1.478925
 C         3.591052         0.372959         0.550848
 O         2.293666         0.897512         0.684798
 C         3.533245        -1.034168        -0.112288
 O         2.228838        -1.107637        -0.495325
 H        -0.347716         0.903808         0.222330
 H         0.674594         0.703343        -1.227245
 H        -0.310529        -0.744176        -0.499430
 H         0.586492         0.123535         2.256331
 H         0.603191        -1.625256         1.755632
 H         2.791080        -0.513374         3.339811
 H         2.699416        -2.157273         2.762176
 H         4.811906        -1.040903         1.939299
 H         4.321079         1.233482         0.479071
 H         4.144173        -1.477862        -0.831570
