19
Iteration:   565
 C         0.208545         0.186518        -0.217749
 C         1.401322        -0.267954         0.404214
 C         1.281960        -1.184748         1.574413
 C         2.631881        -1.330157         2.275390
 C         3.793086        -0.828403         1.454567
 C         3.576288         0.568228         0.821886
 O         2.192118         1.013121         0.603353
 C         3.580135        -0.795527        -0.040139
 O         2.280208        -1.020373        -0.504376
 H        -0.556529         0.607943         0.473424
 H         0.297042         0.968386        -0.987911
 H        -0.277045        -0.606509        -0.867162
 H         0.390032        -1.130246         2.207935
 H         1.014922        -2.208399         1.208194
 H         2.637565        -0.875371         3.271547
 H         2.880085        -2.363320         2.615021
 H         4.702422        -0.987815         2.058881
 H         4.306780         1.406511         0.967354
 H         4.425596        -0.919890        -0.720130
