19
Iteration:  3902charge 0 multiplicity 1
 C         0.155052         0.100570        -0.245860
 C         1.512175        -0.199728         0.363918
 C         1.227989        -0.746728         1.878065
 C         2.564880        -1.249534         2.475250
 C         3.718851        -0.871411         1.527796
 C         3.644725         0.425909         0.610939
 O         2.348003         0.976294         0.437433
 C         3.525526        -0.999631        -0.030032
 O         2.279346        -1.097525        -0.593512
 H        -0.542439         0.568625         0.538974
 H         0.082969         0.816303        -1.094942
 H        -0.451900        -0.774229        -0.616726
 H         0.923764         0.061615         2.446928
 H         0.267117        -1.374509         1.746733
 H         2.790049        -1.055589         3.556876
 H         2.346792        -2.413422         2.393414
 H         4.696570        -1.329310         1.814231
 H         4.477951         1.176436         0.572568
 H         4.247101        -1.303910        -0.746438
