19
Iteration:  4936charge 0 multiplicity 1
 C         0.201940         0.198486        -0.330135
 C         1.432995        -0.187822         0.353601
 C         1.331773        -0.838732         1.769889
 C         2.619171        -1.137265         2.378644
 C         3.777573        -0.936826         1.453176
 C         3.522123         0.363037         0.717337
 O         2.239247         0.901524         0.506230
 C         3.518515        -0.976620         0.014331
 O         2.235867        -1.108344        -0.466359
 H        -0.084327         1.001720         0.295925
 H         0.683411         0.636769        -1.249365
 H        -0.585327        -0.507135        -0.334434
 H         0.924679         0.018368         2.465890
 H         0.689380        -1.610516         1.754101
 H         2.929511        -0.470059         3.280422
 H         2.623376        -2.151781         2.825441
 H         4.852256        -1.263568         1.597205
 H         4.288056         1.016127         0.384810
 H         4.279349        -1.234987        -0.858697
