19
Iteration:  2483
 C         0.220072         0.150595        -0.434688
 C         1.419011        -0.162691         0.383837
 C         1.308430        -0.756977         1.879347
 C         2.629834        -1.507770         2.200280
 C         3.801708        -0.843879         1.504514
 C         3.542079         0.530823         0.730912
 O         2.214421         0.967428         0.533777
 C         3.576078        -0.792955        -0.030469
 O         2.205248        -1.207762        -0.351916
 H        -0.541822         0.652951         0.159479
 H         0.428438         0.685705        -1.296632
 H        -0.060255        -0.882001        -0.779163
 H         1.076446         0.039188         2.597757
 H         0.460103        -1.427655         1.818909
 H         2.938713        -1.352305         3.314707
 H         2.585009        -2.548498         2.014958
 H         4.804071        -1.165162         1.898433
 H         4.225102         1.297406         0.480180
 H         4.454979        -0.916222        -0.834213
