19
Iteration:  2439
 C         0.147644        -0.012718        -0.302184
 C         1.512690        -0.112544         0.388038
 C         1.284808        -0.801033         1.756533
 C         2.544139        -1.435798         2.307993
 C         3.729900        -0.858382         1.511882
 C         3.639284         0.475164         0.645878
 O         2.283160         1.022535         0.570119
 C         3.540116        -0.840708        -0.002624
 O         2.249960        -1.063886        -0.492794
 H        -0.529083         0.458475         0.412913
 H         0.093455         0.666112        -1.093597
 H        -0.214065        -1.012893        -0.627917
 H         0.949949        -0.027723         2.460025
 H         0.471500        -1.506335         1.734678
 H         2.666051        -1.315215         3.440691
 H         2.643120        -2.471301         2.146655
 H         4.770327        -1.111706         1.780625
 H         4.476926         1.159144         0.617746
 H         4.417071        -1.192745        -0.693412
