19
Iteration:  1815charge 0 multiplicity 1
 C         0.123267         0.186464        -0.325349
 C         1.428432        -0.336032         0.356676
 C         1.332874        -0.898655         1.800766
 C         2.567927        -1.609910         2.103633
 C         3.714282        -0.704900         1.570227
 C         3.531269         0.538010         0.613942
 O         2.237268         1.062969         0.554188
 C         3.682365        -0.794244         0.061091
 O         2.293442        -1.108622        -0.389143
 H        -0.494678         0.698785         0.416845
 H         0.456290         0.752216        -1.116786
 H        -0.389345        -0.774902        -0.572822
 H         1.246506        -0.003291         2.596060
 H         0.455633        -1.581967         2.096289
 H         2.759362        -1.706055         3.158559
 H         2.541610        -2.613883         1.527184
 H         4.628116        -0.649197         2.112463
 H         4.274519         1.270811         0.674543
 H         4.521966        -1.282235        -0.622444
