19
Iteration:  1094charge 0 multiplicity 1
 C         0.245723         0.191125        -0.482790
 C         1.403779        -0.242721         0.433669
 C         1.331829        -0.925398         1.798943
 C         2.679897        -1.478887         2.220507
 C         3.794840        -0.708519         1.529739
 C         3.476243         0.495456         0.745773
 O         2.172846         0.928294         0.743435
 C         3.543719        -0.754870        -0.088058
 O         2.227092        -1.092454        -0.464551
 H        -0.530135         0.718587         0.038415
 H         0.819717         0.669042        -1.269406
 H        -0.158455        -0.761060        -0.883644
 H         1.008502        -0.209366         2.527003
 H         0.738089        -1.876287         1.722148
 H         2.893367        -1.427863         3.338188
 H         2.683828        -2.625087         1.872883
 H         4.835746        -1.137947         1.690167
 H         4.239823         1.226837         0.512418
 H         4.405931        -0.914511        -0.808795
