19
Iteration:  3413
 C         0.216661         0.149666        -0.390363
 C         1.407665        -0.187796         0.417988
 C         1.288713        -0.800165         1.813638
 C         2.670755        -1.378325         2.260552
 C         3.735928        -0.747592         1.494076
 C         3.591852         0.489465         0.627366
 O         2.256571         0.975094         0.425778
 C         3.498496        -0.955812         0.059940
 O         2.243571        -1.173244        -0.296789
 H        -0.295536         0.706989         0.372816
 H         0.662541         0.756754        -1.229357
 H        -0.440897        -0.676049        -0.594149
 H         1.000611         0.120895         2.476846
 H         0.519615        -1.517743         1.893291
 H         2.784510        -1.561703         3.324275
 H         2.498695        -2.442550         1.950111
 H         4.770589        -0.935659         1.801832
 H         4.390388         1.266446         0.256097
 H         4.241311        -1.435123        -0.627464
