19
Iteration:  4015
 C         0.155607         0.151342        -0.234885
 C         1.507918        -0.163043         0.374277
 C         1.204607        -0.904258         1.655755
 C         2.603857        -1.086461         2.476195
 C         3.701724        -0.901765         1.466441
 C         3.715006         0.329854         0.625780
 O         2.369537         1.010581         0.514415
 C         3.497143        -1.050688        -0.034692
 O         2.180907        -1.072390        -0.449258
 H        -0.464150         0.812584         0.367557
 H         0.210379         0.471166        -1.346741
 H        -0.208022        -0.882803        -0.257495
 H         0.380130        -0.520075         2.323503
 H         0.815790        -1.772614         1.213491
 H         2.797423        -0.188440         3.187723
 H         2.662440        -2.006108         3.090601
 H         4.715844        -1.179662         1.749997
 H         4.423563         1.198608         0.480481
 H         4.288423        -1.497375        -0.715850
