19
Iteration:   816charge 0 multiplicity 1
 C         0.162714         0.093131        -0.298867
 C         1.467977        -0.229093         0.370602
 C         1.224487        -1.155154         1.608255
 C         2.581776        -1.379760         2.268046
 C         3.765808        -0.709586         1.576918
 C         3.608122         0.472284         0.700129
 O         2.259088         1.005102         0.797958
 C         3.603494        -0.760968        -0.078831
 O         2.262695        -0.955310        -0.568718
 H        -0.384844         0.712684         0.394552
 H         0.231211         0.324263        -1.370087
 H        -0.466783        -0.811855        -0.482994
 H         0.616365        -0.551305         2.313007
 H         0.709650        -2.153989         1.381988
 H         2.657001        -1.040706         3.358840
 H         2.864279        -2.481545         2.293817
 H         4.866394        -0.867127         1.927249
 H         4.352060         1.206947         0.656235
 H         4.291637        -1.147770        -0.807815
