19
Iteration:   289charge 0 multiplicity 1
 C         0.028151         0.267239        -0.183905
 C         1.495154        -0.257250         0.346410
 C         1.332015        -1.257261         1.549380
 C         2.581193        -1.114443         2.375888
 C         3.764143        -0.910944         1.473455
 C         3.608450         0.416952         0.816881
 O         2.193172         0.841665         0.746114
 C         3.640018        -0.740242        -0.118049
 O         2.332168        -0.945728        -0.649449
 H        -0.336416         1.037936         0.501463
 H         0.245039         0.679362        -1.225740
 H        -0.603957        -0.659050        -0.121142
 H         0.365293        -1.170283         2.103658
 H         1.231963        -2.303020         1.212846
 H         2.451083        -0.282520         3.011044
 H         2.725449        -1.898668         3.162681
 H         4.724924        -1.093895         1.929484
 H         4.229712         1.291242         0.818409
 H         4.233384        -0.841523        -0.979632
