19
Iteration:  1413
 C         0.101313         0.051183        -0.252919
 C         1.443723        -0.180057         0.359564
 C         1.294259        -1.077700         1.615013
 C         2.606038        -1.204785         2.464019
 C         3.781383        -0.982638         1.502906
 C         3.612710         0.459443         0.786694
 O         2.274758         1.008118         0.657039
 C         3.574583        -0.864695        -0.113737
 O         2.257043        -0.903679        -0.612052
 H        -0.546062         0.814453         0.232134
 H         0.208187         0.355893        -1.331119
 H        -0.234207        -0.957933        -0.147894
 H         0.662965        -0.468782         2.242141
 H         0.611884        -1.996897         1.389340
 H         2.589739        -0.475515         3.281255
 H         2.659276        -2.260017         2.857855
 H         4.888582        -1.251460         1.627460
 H         4.406123         1.188751         0.782227
 H         4.335868        -1.076018        -0.909297
