19
Iteration:  3377
 C         0.139492         0.081562        -0.344594
 C         1.408628        -0.206947         0.391674
 C         1.287499        -0.651072         1.838955
 C         2.575016        -1.377824         2.316016
 C         3.765224        -0.866293         1.442931
 C         3.601628         0.447683         0.648462
 O         2.245428         0.927888         0.492025
 C         3.602027        -0.863933        -0.020127
 O         2.308271        -1.173019        -0.374691
 H        -0.535916         0.641939         0.306500
 H         0.189934         0.884217        -1.127980
 H        -0.364481        -0.747266        -0.893584
 H         1.198664         0.299641         2.310659
 H         0.466586        -1.244792         2.207264
 H         2.715275        -1.108781         3.381239
 H         2.465146        -2.480694         2.071996
 H         4.787084        -1.068517         1.789450
 H         4.408142         1.135635         0.588636
 H         4.315353        -1.208742        -0.707163
