19
Iteration:  3119
 C         0.038407         0.114465        -0.276426
 C         1.494371        -0.253948         0.343012
 C         1.283560        -0.757041         1.779234
 C         2.583719        -1.351140         2.372018
 C         3.799615        -0.913438         1.538892
 C         3.573823         0.500144         0.623030
 O         2.275716         0.983693         0.488500
 C         3.590664        -0.883852         0.011435
 O         2.312414        -1.078824        -0.486515
 H        -0.353706         1.054679         0.166664
 H         0.076035         0.291919        -1.384785
 H        -0.522811        -0.837331        -0.136246
 H         0.824182        -0.026518         2.428699
 H         0.650156        -1.612812         1.656097
 H         2.525562        -1.061147         3.487065
 H         2.456897        -2.433524         2.348918
 H         4.767279        -1.404856         1.848290
 H         4.263414         1.265668         0.447049
 H         4.595235        -1.227643        -0.508419
