19
Iteration:  3900charge 0 multiplicity 1
 C         0.153194         0.121444        -0.247599
 C         1.509360        -0.213298         0.344978
 C         1.219804        -0.739063         1.878729
 C         2.564147        -1.258924         2.445476
 C         3.719035        -0.868767         1.529095
 C         3.643976         0.444165         0.620059
 O         2.334852         0.959404         0.432918
 C         3.542375        -0.981837        -0.023233
 O         2.283139        -1.107708        -0.577420
 H        -0.522176         0.567047         0.574741
 H         0.069873         0.845708        -1.022499
 H        -0.409382        -0.813709        -0.561391
 H         0.903658         0.113242         2.489753
 H         0.230637        -1.334773         1.816142
 H         2.805803        -1.077638         3.504864
 H         2.384455        -2.421738         2.411969
 H         4.663668        -1.334006         1.811894
 H         4.561271         1.124250         0.556983
 H         4.266631        -1.394208        -0.766490
