19
Iteration:  4392charge 0 multiplicity 1
 C         0.107462         0.065159        -0.412105
 C         1.450390        -0.218119         0.349310
 C         1.314421        -0.692124         1.963703
 C         2.593403        -1.320090         2.482815
 C         3.708143        -0.877407         1.566470
 C         3.611680         0.316669         0.611486
 O         2.363232         0.980094         0.463343
 C         3.541348        -0.925383        -0.097209
 O         2.214296        -1.036834        -0.492139
 H        -0.501109         0.764034         0.219701
 H         0.302052         0.557258        -1.367047
 H        -0.406656        -0.908994        -0.563287
 H         1.167301         0.300450         2.273992
 H         0.358253        -1.277974         1.839513
 H         2.863866        -0.956929         3.469249
 H         2.493084        -2.445448         2.530522
 H         4.756678        -0.990257         1.850345
 H         4.460357         0.979404         0.390838
 H         4.401328        -1.353611        -0.675048
