19
Iteration:  4221charge 0 multiplicity 1
 C         0.318866         0.365936        -0.349281
 C         1.418565        -0.287874         0.405594
 C         1.271497        -0.956940         1.748909
 C         2.634956        -1.133613         2.493543
 C         3.743906        -0.803936         1.483448
 C         3.588502         0.410491         0.558627
 O         2.256548         0.891938         0.466760
 C         3.530689        -0.971967        -0.034353
 O         2.168541        -1.211506        -0.396842
 H        -0.301364         0.974418         0.340956
 H         0.682804         1.034776        -1.073592
 H        -0.439967        -0.270924        -0.838849
 H         0.621564        -0.314142         2.423354
 H         0.857648        -2.005188         1.626240
 H         2.706720        -0.458572         3.338409
 H         2.598740        -2.056506         3.042889
 H         4.801658        -0.889751         1.699900
 H         4.437914         1.064482         0.344263
 H         4.202635        -1.496461        -0.619168
