19
Iteration:   778charge 0 multiplicity 1
 C         0.107075         0.316767        -0.181319
 C         1.447177        -0.276047         0.294021
 C         1.365384        -1.278513         1.552815
 C         2.631362        -1.249077         2.426964
 C         3.790821        -0.911161         1.521914
 C         3.468819         0.452171         0.823394
 O         2.141916         0.953740         0.585677
 C         3.615375        -0.728943        -0.080203
 O         2.370156        -1.016217        -0.605078
 H        -0.313982         0.830714         0.745721
 H         0.321029         1.175569        -0.828116
 H        -0.560291        -0.479064        -0.516856
 H         0.452768        -1.061484         2.091796
 H         1.139897        -2.237975         1.173641
 H         2.477492        -0.430367         3.160402
 H         2.741363        -2.171705         3.068434
 H         4.744433        -1.009060         1.917776
 H         4.205746         1.339715         1.011454
 H         4.544023        -0.917228        -0.730938
