19
Iteration:  4341charge 0 multiplicity 1
 C         0.199649         0.338815        -0.381693
 C         1.374120        -0.274965         0.380355
 C         1.223085        -0.864367         1.821639
 C         2.558542        -1.223310         2.387008
 C         3.764349        -0.723810         1.479846
 C         3.665308         0.438117         0.484805
 O         2.353822         0.895314         0.536272
 C         3.587825        -0.989954        -0.032832
 O         2.180462        -1.270229        -0.323521
 H        -0.219521         1.182288         0.292000
 H         0.512473         0.655686        -1.338404
 H        -0.537536        -0.533124        -0.379469
 H         0.822666        -0.044266         2.382240
 H         0.505095        -1.723236         1.626792
 H         2.560095        -0.875630         3.413970
 H         2.711774        -2.366538         2.500391
 H         4.819095        -0.755658         1.857655
 H         4.438490         1.218224         0.498187
 H         4.420414        -1.231652        -0.841944
