19
Iteration:  2484charge 0 multiplicity 1
 C         0.225398         0.152500        -0.430480
 C         1.418501        -0.163435         0.390359
 C         1.304749        -0.761659         1.868961
 C         2.626877        -1.512543         2.203472
 C         3.804062        -0.841335         1.505292
 C         3.531523         0.532558         0.728231
 O         2.218366         0.973158         0.530056
 C         3.576881        -0.795990        -0.030274
 O         2.206836        -1.208180        -0.348035
 H        -0.550738         0.673828         0.119713
 H         0.411505         0.726663        -1.293552
 H        -0.059981        -0.887743        -0.737801
 H         1.080172         0.001246         2.572600
 H         0.471963        -1.425527         1.838884
 H         2.932658        -1.343627         3.271432
 H         2.616217        -2.574588         2.045028
 H         4.813593        -1.150195         1.917417
 H         4.234937         1.277414         0.458846
 H         4.442537        -0.914361        -0.842468
