19
Iteration:  3523charge 0 multiplicity 1
 C         0.218080         0.288138        -0.282422
 C         1.451363        -0.280012         0.341532
 C         1.290455        -1.169939         1.693001
 C         2.596310        -1.048809         2.462140
 C         3.728592        -0.795067         1.473651
 C         3.608802         0.391313         0.642566
 O         2.309795         0.990136         0.551411
 C         3.519228        -1.015117        -0.029371
 O         2.186065        -1.089505        -0.462411
 H        -0.329160         0.962030         0.434120
 H         0.466624         0.839694        -1.169583
 H        -0.435105        -0.553931        -0.574809
 H         0.518499        -0.724798         2.414801
 H         0.976508        -2.111363         1.478550
 H         2.619501        -0.026336         2.917943
 H         2.852365        -1.771668         3.253759
 H         4.731561        -1.097612         1.588130
 H         4.393978         0.957818         0.297990
 H         4.372130        -1.389041        -0.595176
