19
Iteration:  1496charge 0 multiplicity 1
 C         0.171203         0.215019        -0.315491
 C         1.438206        -0.230497         0.393215
 C         1.252559        -1.092372         1.710851
 C         2.677581        -1.316663         2.342672
 C         3.786344        -0.853922         1.443558
 C         3.540563         0.452788         0.762989
 O         2.242615         0.980319         0.631396
 C         3.567051        -0.790176        -0.050426
 O         2.279705        -1.047774        -0.530724
 H        -0.507843         0.659235         0.462191
 H         0.332374         0.760473        -1.248360
 H        -0.308037        -0.729561        -0.676940
 H         0.578808        -0.609623         2.432063
 H         0.807487        -1.946964         1.281904
 H         2.721513        -0.491195         3.162190
 H         2.689533        -2.285345         2.922285
 H         4.703439        -1.070520         1.891763
 H         4.240976         1.289246         0.728862
 H         4.242259        -1.160419        -0.931897
