19
Iteration:  3832charge 0 multiplicity 1
 C         0.301504         0.133690        -0.412522
 C         1.434780        -0.207292         0.433525
 C         1.288223        -0.718584         1.853416
 C         2.614518        -1.380857         2.313878
 C         3.772090        -0.782209         1.476209
 C         3.651903         0.354414         0.584051
 O         2.216113         1.010321         0.547423
 C         3.503059        -0.998480        -0.075961
 O         2.177018        -1.090949        -0.323706
 H        -0.254674         1.000340        -0.154149
 H         0.646580         0.311957        -1.466258
 H        -0.443043        -0.660008        -0.516336
 H         0.824989         0.111313         2.558998
 H         0.601465        -1.551450         1.939960
 H         2.732802        -1.160555         3.385634
 H         2.795713        -2.500003         2.178503
 H         4.735872        -0.913832         1.930782
 H         4.308231         1.154091         0.577347
 H         4.023540        -1.364114        -0.995933
