19
Iteration:  1595
 C         0.161869         0.217164        -0.353539
 C         1.411798        -0.290754         0.371345
 C         1.268230        -0.917502         1.814899
 C         2.673284        -1.472508         2.137844
 C         3.774411        -0.653560         1.582888
 C         3.523786         0.470644         0.657276
 O         2.217521         0.957613         0.611056
 C         3.624923        -0.782331        -0.034900
 O         2.282304        -1.162992        -0.401296
 H        -0.195585         0.977566         0.371985
 H         0.626136         0.852976        -1.193220
 H        -0.547924        -0.493997        -0.746786
 H         0.871885        -0.144335         2.472477
 H         0.691765        -1.805416         1.829115
 H         2.494467        -1.707630         3.224185
 H         2.622506        -2.564896         1.793179
 H         4.770142        -0.762173         2.045982
 H         4.167913         1.306782         0.521566
 H         4.299151        -1.282260        -0.696708
