19
Iteration:  4406charge 0 multiplicity 1
 C         0.164360         0.091409        -0.316800
 C         1.438909        -0.252843         0.387230
 C         1.212606        -0.595555         1.861068
 C         2.571994        -1.292473         2.458952
 C         3.805152        -0.896358         1.460432
 C         3.623181         0.419789         0.612341
 O         2.287329         0.950671         0.466495
 C         3.583769        -1.011641         0.033282
 O         2.249243        -1.079168        -0.568704
 H        -0.545965         0.703680         0.353800
 H         0.444084         0.644887        -1.201487
 H        -0.390484        -0.859294        -0.611208
 H         1.116069         0.251214         2.419191
 H         0.393535        -1.285022         2.282578
 H         2.674435        -1.066397         3.530337
 H         2.480940        -2.451159         2.405648
 H         4.832747        -1.207223         1.769394
 H         4.382369         1.190473         0.563622
 H         4.286185        -1.468143        -0.759498
