19
Iteration:   131
 C         0.163332         0.058922        -0.394868
 C         1.438841        -0.225059         0.402366
 C         1.237217        -0.966664         1.765355
 C         2.683169        -1.452152         2.305028
 C         3.795241        -0.885085         1.443930
 C         3.557260         0.493765         0.783864
 O         2.201356         0.962070         0.679775
 C         3.599189        -0.801677        -0.017547
 O         2.282273        -0.879847        -0.574601
 H        -0.416516         0.822263         0.055726
 H         0.269800         0.421803        -1.333993
 H        -0.477937        -0.743909        -0.351727
 H         0.713041        -0.277012         2.422796
 H         0.563146        -1.835173         1.636381
 H         2.862293        -1.158116         3.350947
 H         2.782308        -2.517591         2.312146
 H         4.741549        -1.078436         1.848379
 H         4.291139         1.340551         0.840691
 H         4.300329        -1.003046        -0.837827
