19
Iteration:  1701
 C         0.211670         0.348334        -0.199742
 C         1.394954        -0.248950         0.386722
 C         1.334110        -1.256341         1.573591
 C         2.619916        -1.114614         2.362488
 C         3.760662        -0.892692         1.522199
 C         3.581984         0.505056         0.637332
 O         2.171683         0.880850         0.647710
 C         3.602581        -0.802344        -0.051693
 O         2.295249        -1.112110        -0.527854
 H        -0.324177         0.936571         0.568345
 H         0.464191         1.042647        -1.041220
 H        -0.640961        -0.257913        -0.565288
 H         0.401284        -1.024719         2.325170
 H         1.141538        -2.279511         1.214691
 H         2.306528        -0.271618         3.012063
 H         2.643401        -2.044430         2.937402
 H         4.712164        -1.155325         1.917680
 H         4.287177         1.296573         0.655167
 H         4.526187        -1.065155        -0.631556
