19
Iteration:  3126
 C         0.120877         0.083317        -0.316933
 C         1.465250        -0.210540         0.323711
 C         1.288982        -0.725513         1.793736
 C         2.566884        -1.370400         2.367200
 C         3.756717        -0.890758         1.498013
 C         3.628617         0.517703         0.624069
 O         2.242676         0.909585         0.539942
 C         3.606419        -0.863751        -0.008564
 O         2.273367        -1.100496        -0.449879
 H        -0.354682         0.897598         0.262892
 H         0.309584         0.269427        -1.333333
 H        -0.575935        -0.746966        -0.102354
 H         0.914686         0.241215         2.316217
 H         0.530037        -1.519867         1.809692
 H         2.652862        -1.215788         3.413703
 H         2.508575        -2.455913         2.175467
 H         4.770828        -1.077899         1.806889
 H         4.401275         1.348556         0.507911
 H         4.440082        -1.222878        -0.591522
