19
Iteration:  2189charge 0 multiplicity 1
 C         0.094549         0.214883        -0.195674
 C         1.484513        -0.193792         0.329578
 C         1.255253        -1.050403         1.641628
 C         2.616015        -1.305012         2.406430
 C         3.725313        -0.802694         1.544439
 C         3.586316         0.426138         0.742484
 O         2.274417         0.915068         0.460800
 C         3.580921        -0.864887        -0.009556
 O         2.310235        -0.985347        -0.538069
 H        -0.513959         0.748975         0.529293
 H         0.170588         0.764235        -1.151563
 H        -0.451117        -0.694453        -0.230200
 H         0.689812        -0.501560         2.370619
 H         0.761416        -1.955373         1.387725
 H         2.717091        -1.001435         3.403704
 H         2.875756        -2.455895         2.433215
 H         4.663303        -0.959568         2.092852
 H         4.343090         1.233876         0.681011
 H         4.335029        -1.195968        -0.717194
