19
Iteration:    15charge 0 multiplicity 1
 C        -0.047858         0.119493        -0.304544
 C         1.427707        -0.247307         0.345160
 C         1.198351        -1.015562         1.641458
 C         2.633131        -1.259863         2.321731
 C         3.851373        -0.925627         1.413679
 C         3.622045         0.439505         0.833117
 O         2.298543         0.956298         0.768701
 C         3.642603        -0.715157        -0.139697
 O         2.332036        -1.000267        -0.550157
 H        -0.732871         0.520272         0.576781
 H        -0.070713         0.827662        -1.148600
 H        -0.392233        -0.963414        -0.389596
 H         0.453725        -0.494285         2.274497
 H         0.747993        -1.960609         1.371574
 H         2.755900        -0.676179         3.213574
 H         2.723663        -2.314825         2.750817
 H         4.749746        -1.305032         1.726379
 H         4.401404         1.228714         0.734290
 H         4.410413        -0.954512        -0.853928
