19
Iteration:  1485
 C         0.177164         0.282131        -0.335695
 C         1.447626        -0.210526         0.409843
 C         1.273473        -1.174261         1.646450
 C         2.664021        -1.255234         2.395078
 C         3.779236        -0.841437         1.472457
 C         3.609542         0.499950         0.695893
 O         2.154138         0.922067         0.648466
 C         3.592018        -0.832096        -0.085171
 O         2.228286        -1.068476        -0.477507
 H        -0.448810         0.931366         0.363460
 H         0.564045         1.000349        -1.056194
 H        -0.499071        -0.509766        -0.736316
 H         0.440822        -0.808627         2.263873
 H         0.991597        -2.136346         1.330442
 H         2.666544        -0.583433         3.341605
 H         3.020416        -2.286815         2.633489
 H         4.783951        -0.867067         1.712123
 H         4.392539         1.277334         0.708965
 H         4.503429        -1.353527        -0.598343
