19
Iteration:  3855charge 0 multiplicity 1
 C         0.256040         0.235177        -0.424402
 C         1.406905        -0.138767         0.415327
 C         1.225246        -0.766046         1.897325
 C         2.649761        -1.448432         2.280277
 C         3.778286        -0.794824         1.499618
 C         3.636733         0.431474         0.591775
 O         2.297404         1.026636         0.423560
 C         3.529597        -0.894125         0.013308
 O         2.178622        -1.266780        -0.277636
 H        -0.499776         0.890035         0.088965
 H         0.370595         0.690829        -1.401405
 H        -0.410830        -0.642042        -0.596295
 H         0.875806         0.018176         2.675071
 H         0.461539        -1.596000         2.024905
 H         2.821237        -1.511804         3.370879
 H         2.508668        -2.549109         1.894180
 H         4.806802        -0.917485         1.741984
 H         4.234257         1.222315         0.132518
 H         4.482462        -1.311626        -0.456550
