19
Iteration:   584charge 0 multiplicity 1
 C         0.120482         0.072925        -0.345293
 C         1.449551        -0.164464         0.402463
 C         1.247136        -1.032069         1.599897
 C         2.652541        -1.461481         2.296741
 C         3.781732        -0.820713         1.453940
 C         3.512875         0.523660         0.769815
 O         2.234742         0.972126         0.753470
 C         3.662667        -0.713767        -0.080394
 O         2.310398        -1.004684        -0.470758
 H        -0.630109         0.460059         0.360642
 H         0.141266         0.737249        -1.189364
 H        -0.219890        -0.804580        -0.827312
 H         0.523896        -0.574682         2.371065
 H         0.646311        -1.987146         1.467905
 H         2.651718        -0.973232         3.259579
 H         2.709454        -2.484356         2.411343
 H         4.739202        -1.018193         1.678456
 H         4.230532         1.304060         0.652000
 H         4.423625        -1.035097        -0.783402
