19
Iteration:  2019charge 0 multiplicity 1
 C         0.194224         0.043230        -0.460550
 C         1.402530        -0.211810         0.383091
 C         1.286371        -0.807114         1.828690
 C         2.650637        -1.509630         2.199767
 C         3.772511        -0.820460         1.457652
 C         3.570053         0.502945         0.738862
 O         2.212417         1.040616         0.685472
 C         3.627043        -0.773674        -0.040084
 O         2.229013        -1.078983        -0.403036
 H        -0.605177         0.758943        -0.054456
 H         0.540245         0.606878        -1.351476
 H        -0.198270        -1.028744        -0.725765
 H         1.199068        -0.000219         2.528113
 H         0.534385        -1.618596         1.924157
 H         2.682403        -1.766597         3.327746
 H         2.460050        -2.473415         1.735981
 H         4.755937        -1.005453         1.840138
 H         4.265123         1.329293         0.838107
 H         4.318268        -1.316931        -0.779504
