19
Iteration:  4397
 C         0.149046         0.071347        -0.366387
 C         1.392973        -0.246505         0.352914
 C         1.278428        -0.657226         1.948905
 C         2.582852        -1.329159         2.502883
 C         3.773894        -0.887260         1.514154
 C         3.613527         0.334235         0.597669
 O         2.329154         0.978325         0.460933
 C         3.575464        -0.953468        -0.048994
 O         2.235904        -1.032880        -0.535142
 H        -0.524477         0.712565         0.242646
 H         0.304788         0.578667        -1.333022
 H        -0.424224        -0.850008        -0.604975
 H         1.007317         0.411191         2.360551
 H         0.294636        -1.154226         1.981523
 H         2.675024        -0.969402         3.565391
 H         2.534583        -2.440389         2.460632
 H         4.845433        -1.058163         1.714678
 H         4.481677         0.962440         0.467896
 H         4.429587        -1.359978        -0.602671
