19
Iteration:  2857charge 0 multiplicity 1
 C         0.063856         0.252374        -0.195077
 C         1.451151        -0.229632         0.311578
 C         1.262317        -1.089403         1.679979
 C         2.589121        -1.148617         2.467364
 C         3.798087        -0.833176         1.506813
 C         3.660070         0.441362         0.649349
 O         2.259559         0.960991         0.532839
 C         3.549991        -0.964339        -0.003079
 O         2.296592        -1.069355        -0.567163
 H        -0.351410         0.821174         0.644403
 H         0.121034         0.975918        -0.966353
 H        -0.520470        -0.554205        -0.603671
 H         0.416822        -0.574840         2.180110
 H         1.001957        -2.184339         1.299777
 H         2.577012        -0.400157         3.320143
 H         2.664754        -2.115543         2.927531
 H         4.822025        -1.141090         1.782192
 H         4.477924         1.160168         0.535859
 H         4.455869        -1.451386        -0.496935
