19
Iteration:  2806charge 0 multiplicity 1
 C         0.137215         0.227257        -0.353232
 C         1.360367        -0.334685         0.345340
 C         1.314363        -1.077663         1.745459
 C         2.663033        -0.985298         2.462341
 C         3.788905        -0.908882         1.498616
 C         3.578685         0.409758         0.630430
 O         2.304069         0.886756         0.768065
 C         3.561358        -0.914371        -0.056481
 O         2.186304        -1.001616        -0.629724
 H        -0.560595         0.829370         0.316622
 H         0.613755         0.820842        -1.139457
 H        -0.325338        -0.574457        -1.028892
 H         0.491166        -0.657348         2.271346
 H         1.073789        -2.052577         1.378484
 H         2.627601        -0.155803         3.115844
 H         2.899478        -1.966204         3.049231
 H         4.669335        -1.310999         1.892709
 H         4.470494         1.009170         0.327754
 H         4.400444        -1.154771        -0.580023
