19
Iteration:  3800charge 0 multiplicity 1
 C         0.041459         0.167290        -0.287496
 C         1.410686        -0.277976         0.329162
 C         1.240047        -0.799002         1.758154
 C         2.601560        -1.201530         2.375125
 C         3.727328        -0.900611         1.497395
 C         3.786656         0.433395         0.666539
 O         2.328194         0.928740         0.558448
 C         3.562829        -0.934568        -0.074885
 O         2.266357        -1.120012        -0.471476
 H        -0.445864         1.062518         0.142638
 H         0.171445         0.428617        -1.371600
 H        -0.692936        -0.637919        -0.184018
 H         0.741380         0.057061         2.330129
 H         0.554403        -1.644298         1.847427
 H         2.747811        -0.518132         3.246609
 H         2.557817        -2.241648         2.869370
 H         4.673790        -1.314501         1.748557
 H         4.438067         1.243209         0.633033
 H         4.358062        -1.279414        -0.742073
