19
Iteration:  4049charge 0 multiplicity 1
 C         0.121975         0.103284        -0.343767
 C         1.412834        -0.177557         0.337210
 C         1.195332        -0.678074         1.792600
 C         2.639812        -1.215531         2.511679
 C         3.771412        -0.891000         1.470185
 C         3.655679         0.368323         0.655110
 O         2.370536         0.909843         0.587769
 C         3.532075        -1.022861        -0.094953
 O         2.237674        -1.085869        -0.529392
 H        -0.711052         0.488119         0.332279
 H         0.192888         0.687046        -1.273543
 H        -0.364693        -0.883594        -0.589027
 H         0.673569         0.296396         2.121144
 H         0.571137        -1.488838         1.884618
 H         2.821864        -0.500949         3.409213
 H         2.812986        -2.259684         2.796458
 H         4.754363        -1.154508         1.849211
 H         4.419726         1.204342         0.480747
 H         4.210257        -1.469920        -0.800641
