19
Iteration:  1052charge 0 multiplicity 1
 C         0.081191         0.058546        -0.262264
 C         1.467097        -0.183856         0.391003
 C         1.277479        -1.020662         1.644667
 C         2.577650        -1.352381         2.321729
 C         3.747309        -0.867776         1.440820
 C         3.633520         0.483593         0.782709
 O         2.253943         0.978727         0.677089
 C         3.584334        -0.741328        -0.035476
 O         2.329420        -0.985053        -0.558443
 H        -0.602955         0.667269         0.361753
 H         0.166049         0.451371        -1.284235
 H        -0.428698        -0.906771        -0.483902
 H         0.560016        -0.401079         2.333824
 H         0.696627        -1.987343         1.326845
 H         2.626162        -1.095771         3.388528
 H         2.802818        -2.453792         2.347120
 H         4.732401        -1.094567         1.938599
 H         4.335534         1.305105         0.647186
 H         4.417275        -0.943634        -0.787141
