19
Iteration:   447charge 0 multiplicity 1
 C         0.130616         0.195457        -0.283484
 C         1.379841        -0.286271         0.399435
 C         1.218583        -0.997130         1.745581
 C         2.673698        -1.514989         2.176430
 C         3.738058        -0.770320         1.523018
 C         3.532500         0.544487         0.795546
 O         2.144516         0.938783         0.653968
 C         3.681284        -0.696406        -0.007490
 O         2.415955        -1.078413        -0.607231
 H        -0.289772         0.882739         0.487501
 H         0.355637         0.752034        -1.186401
 H        -0.616868        -0.563170        -0.597511
 H         0.787181        -0.245077         2.372309
 H         0.487073        -1.763993         1.780791
 H         2.819771        -1.459164         3.254757
 H         2.731639        -2.662142         2.095215
 H         4.872749        -0.734953         1.809755
 H         4.226555         1.326815         0.760223
 H         4.461483        -1.052340        -0.631311
