19
Iteration:  4264
 C         0.124372         0.059512        -0.270987
 C         1.486068        -0.172463         0.346783
 C         1.227616        -0.834262         1.662250
 C         2.557678        -1.043198         2.440074
 C         3.754759        -0.943936         1.483146
 C         3.647182         0.321639         0.530593
 O         2.422323         0.962533         0.634984
 C         3.528201        -1.041355        -0.025879
 O         2.196388        -1.015488        -0.448920
 H        -0.465821         0.747445         0.389851
 H         0.388286         0.505762        -1.195856
 H        -0.378613        -0.924322        -0.408137
 H         0.564693        -0.119951         2.129401
 H         0.563057        -1.736391         1.418448
 H         2.574396        -0.223366         3.114552
 H         2.726829        -1.856431         3.128135
 H         4.693860        -1.218681         1.959506
 H         4.459606         1.014527         0.329600
 H         4.126693        -1.547780        -0.750418
