19
Iteration:   923charge 0 multiplicity 1
 C         0.102492         0.085574        -0.263354
 C         1.505001        -0.182287         0.376741
 C         1.284930        -1.018337         1.649931
 C         2.586486        -1.476274         2.266745
 C         3.764334        -0.904264         1.478898
 C         3.580107         0.586059         0.835600
 O         2.149984         1.024221         0.585576
 C         3.646098        -0.751306        -0.044081
 O         2.337024        -1.036809        -0.513791
 H        -0.588881         0.471129         0.515125
 H         0.189798         0.983132        -0.913597
 H        -0.204032        -0.973114        -0.557574
 H         0.683653        -0.391397         2.422143
 H         0.656261        -1.852929         1.493811
 H         2.831318        -1.049426         3.273961
 H         2.571380        -2.621978         2.278686
 H         4.849915        -0.976540         1.848278
 H         4.186083         1.446553         0.742783
 H         4.457257        -0.954671        -0.777280
