19
Iteration:   268
 C         0.076846         0.063213        -0.232141
 C         1.469188        -0.317219         0.326633
 C         1.233821        -1.120471         1.554387
 C         2.596725        -1.168809         2.296403
 C         3.809032        -0.929000         1.416098
 C         3.619181         0.483926         0.718569
 O         2.250483         0.928128         0.884783
 C         3.615821        -0.796365        -0.011140
 O         2.312116        -0.859136        -0.623984
 H        -0.453317         0.721348         0.491378
 H         0.179882         0.719706        -1.195696
 H        -0.613081        -0.844384        -0.294342
 H         0.390758        -0.670161         2.091249
 H         0.734278        -2.085305         1.386865
 H         2.521822        -0.443348         3.054467
 H         2.704633        -2.056300         2.959295
 H         4.794212        -1.290014         1.540103
 H         4.333757         1.309698         0.733337
 H         4.421841        -1.099160        -0.679973
