19
Iteration:  4971charge 0 multiplicity 1
 C         0.169534         0.136968        -0.429975
 C         1.464345        -0.120213         0.480079
 C         1.221382        -0.847548         1.845950
 C         2.560685        -1.235118         2.404980
 C         3.761372        -0.785158         1.452870
 C         3.645451         0.352614         0.472626
 O         2.371174         0.908283         0.618616
 C         3.538884        -0.961834        -0.099714
 O         2.211594        -1.083525        -0.357608
 H        -0.572792         0.769211         0.119004
 H         0.313648         0.655326        -1.366319
 H        -0.322207        -0.800004        -0.771208
 H         0.726459        -0.194755         2.618033
 H         0.568629        -1.667986         1.671191
 H         2.475633        -0.788742         3.413798
 H         2.692182        -2.277330         2.481748
 H         4.754336        -1.066729         1.720754
 H         4.411665         1.069012         0.212491
 H         4.349665        -1.425110        -0.707354
