19
Iteration:   128
 C         0.158992         0.067683        -0.374423
 C         1.437526        -0.234995         0.400061
 C         1.232162        -0.986345         1.747735
 C         2.657005        -1.439763         2.326250
 C         3.789950        -0.856692         1.413585
 C         3.574834         0.506469         0.773381
 O         2.205642         0.938004         0.699402
 C         3.610731        -0.794670        -0.054566
 O         2.296459        -0.884974        -0.553433
 H        -0.407877         0.858228         0.110425
 H         0.323571         0.459488        -1.432758
 H        -0.617208        -0.732701        -0.433497
 H         0.705158        -0.296024         2.398512
 H         0.508871        -1.824516         1.687452
 H         2.829295        -1.119176         3.399162
 H         2.792882        -2.516708         2.296190
 H         4.756153        -1.070691         1.885325
 H         4.276188         1.291073         0.833771
 H         4.324454        -1.086548        -0.780049
