19
Iteration:  1145charge 0 multiplicity 1
 C         0.117821         0.074508        -0.230992
 C         1.492303        -0.154344         0.374166
 C         1.252664        -0.969501         1.648758
 C         2.581229        -1.460948         2.292074
 C         3.779278        -0.879313         1.476818
 C         3.570335         0.553587         0.797093
 O         2.256034         1.047214         0.531369
 C         3.597917        -0.725314        -0.038754
 O         2.290722        -1.099065        -0.486271
 H        -0.352129         0.577143         0.614475
 H         0.084889         0.630673        -1.232798
 H        -0.322273        -0.940453        -0.448606
 H         0.499169        -0.405922         2.336902
 H         0.793796        -1.907317         1.352924
 H         2.915681        -1.322191         3.329519
 H         2.435896        -2.505461         2.386875
 H         4.847766        -0.866767         1.921036
 H         4.336147         1.257914         1.049687
 H         4.373678        -0.999396        -0.782679
