19
Iteration:  4761
 C         0.050169         0.205064        -0.278971
 C         1.435232        -0.254430         0.340947
 C         1.208158        -0.748671         1.718799
 C         2.588756        -1.237835         2.404886
 C         3.798583        -0.832543         1.493373
 C         3.692543         0.380685         0.622889
 O         2.344116         0.902117         0.563963
 C         3.571700        -0.961684         0.002168
 O         2.233547        -1.154847        -0.502768
 H        -0.347748         0.889036         0.462743
 H         0.403475         0.783178        -1.135449
 H        -0.450898        -0.716233        -0.576063
 H         0.850817         0.249087         2.258327
 H         0.432940        -1.372777         1.981475
 H         2.650815        -0.866250         3.442780
 H         2.511286        -2.221284         2.399935
 H         4.852443        -1.126433         1.617018
 H         4.453152         1.185296         0.478478
 H         4.318735        -1.430308        -0.477820
