19
Iteration:  3244charge 0 multiplicity 1
 C         0.084607         0.137302        -0.282796
 C         1.423666        -0.166862         0.347814
 C         1.247597        -0.967259         1.644305
 C         2.625015        -1.081093         2.533186
 C         3.742813        -0.894214         1.483894
 C         3.621058         0.383553         0.638280
 O         2.345531         1.015725         0.582511
 C         3.518030        -0.974491        -0.005576
 O         2.267452        -1.079893        -0.546149
 H        -0.478118         0.801161         0.448443
 H         0.294632         0.613683        -1.219983
 H        -0.462008        -0.836931        -0.361940
 H         0.474200        -0.708338         2.329006
 H         1.148591        -2.048402         1.357019
 H         2.860618        -0.293362         3.284604
 H         2.611519        -2.112247         3.034244
 H         4.712923        -1.354808         1.568503
 H         4.570661         0.976307         0.438884
 H         4.362682        -1.302609        -0.688763
