19
Iteration:  1564
 C         0.185102         0.117191        -0.343431
 C         1.437423        -0.158336         0.393571
 C         1.303730        -0.825162         1.809855
 C         2.603144        -1.581250         2.198791
 C         3.805075        -0.868264         1.539999
 C         3.494269         0.533881         0.717919
 O         2.207889         1.000780         0.518948
 C         3.607642        -0.713093        -0.069124
 O         2.278909        -1.107356        -0.385008
 H        -0.418808         0.623289         0.441584
 H         0.495365         0.573830        -1.364784
 H        -0.285644        -0.812696        -0.647833
 H         0.984599        -0.163693         2.551491
 H         0.620002        -1.736790         1.765137
 H         2.604995        -1.427392         3.352377
 H         2.597189        -2.703308         1.965395
 H         4.913906        -1.016307         1.817461
 H         4.188749         1.370070         0.789527
 H         4.329714        -1.110050        -0.700258
