19
Iteration:  3911
 C         0.135322         0.055235        -0.272067
 C         1.482286        -0.138864         0.416721
 C         1.295451        -0.750937         1.817241
 C         2.558786        -1.250885         2.548322
 C         3.705888        -0.889072         1.504830
 C         3.641973         0.321336         0.603324
 O         2.384266         1.018619         0.468644
 C         3.505406        -1.021553        -0.039924
 O         2.217031        -1.041748        -0.608140
 H        -0.574740         0.635295         0.410519
 H         0.398597         0.619680        -1.136794
 H        -0.366104        -0.873392        -0.682915
 H         0.799984         0.092615         2.310363
 H         0.655129        -1.697830         1.680929
 H         2.645110        -0.866510         3.572558
 H         2.556222        -2.415208         2.533727
 H         4.744990        -1.068939         1.796015
 H         4.303411         1.233492         0.552375
 H         4.375934        -1.245459        -0.668984
