19
Iteration:  3200charge 0 multiplicity 1
 C         0.150129         0.157685        -0.334977
 C         1.511351        -0.248572         0.396510
 C         1.274833        -0.794062         1.830392
 C         2.594255        -1.257451         2.359022
 C         3.749866        -0.852044         1.500470
 C         3.568810         0.463759         0.592526
 O         2.271024         0.986670         0.536433
 C         3.549122        -0.919109        -0.025950
 O         2.274205        -1.192578        -0.463047
 H        -0.620784         0.469186         0.414156
 H         0.442821         0.972424        -1.027959
 H        -0.304963        -0.660228        -0.927981
 H         0.756521        -0.013383         2.433815
 H         0.421182        -1.537818         1.692042
 H         2.762354        -1.133881         3.455396
 H         2.573615        -2.410019         2.283577
 H         4.706490        -1.036855         1.951889
 H         4.456722         1.218177         0.463583
 H         4.361660        -1.232998        -0.646255
