19
Iteration:  3347
 C         0.085846         0.017219        -0.297443
 C         1.486149        -0.111366         0.454418
 C         1.316586        -0.814005         1.726441
 C         2.544541        -1.344128         2.432236
 C         3.722898        -0.801803         1.489428
 C         3.672442         0.409400         0.608342
 O         2.344066         1.011194         0.472680
 C         3.524524        -0.950353        -0.028785
 O         2.212229        -1.055739        -0.449119
 H        -0.605824         0.617839         0.236211
 H         0.383858         0.539650        -1.284652
 H        -0.232739        -0.987417        -0.550332
 H         0.696671        -0.095644         2.456196
 H         0.611593        -1.610324         1.700785
 H         2.584041        -1.060539         3.480212
 H         2.857596        -2.420775         2.451009
 H         4.809568        -0.815993         1.751715
 H         4.587099         1.094800         0.477908
 H         4.228826        -1.457629        -0.630049
