19
Iteration:  3270
 C         0.220487         0.228969        -0.344054
 C         1.383078        -0.286734         0.466857
 C         1.257463        -1.130369         1.648437
 C         2.622929        -0.985369         2.410999
 C         3.773807        -0.775313         1.499643
 C         3.607011         0.368398         0.599859
 O         2.344422         0.909716         0.656546
 C         3.495927        -0.984818        -0.076859
 O         2.174277        -1.038602        -0.487800
 H        -0.128356         1.165509         0.045628
 H         0.789705         0.368296        -1.274091
 H        -0.601783        -0.486843        -0.382885
 H         0.448627        -0.733173         2.418299
 H         1.066192        -2.174875         1.490844
 H         2.624269        -0.104566         3.052060
 H         2.919267        -1.825100         3.065568
 H         4.748187        -1.177837         1.816418
 H         4.380850         1.051501         0.534941
 H         4.178588        -1.295286        -0.840378
