19
Iteration:  1467charge 0 multiplicity 1
 C         0.216911         0.362701        -0.318144
 C         1.410580        -0.343063         0.372771
 C         1.290421        -1.210152         1.653324
 C         2.646018        -1.214849         2.369765
 C         3.804213        -0.706546         1.565996
 C         3.515737         0.522177         0.583012
 O         2.266230         0.892393         0.753780
 C         3.515159        -0.878096        -0.029438
 O         2.241412        -1.073827        -0.524475
 H        -0.317638         0.868266         0.499214
 H         0.753450         0.872196        -1.179162
 H        -0.512225        -0.338719        -0.681304
 H         0.417397        -0.976048         2.244123
 H         1.121710        -2.278581         1.103884
 H         2.548993        -0.533961         3.161690
 H         2.796018        -2.228797         2.611514
 H         4.888565        -1.034556         1.860180
 H         4.237731         1.238170         0.240969
 H         4.210229        -1.126954        -0.805456
