19
Iteration:   133charge 0 multiplicity 1
 C         0.169286         0.054979        -0.399190
 C         1.439134        -0.216490         0.399371
 C         1.246193        -0.956032         1.775843
 C         2.699008        -1.456041         2.288145
 C         3.790220        -0.904172         1.469773
 C         3.544939         0.484445         0.792600
 O         2.199294         0.981572         0.666744
 C         3.590311        -0.802263         0.003610
 O         2.271611        -0.880635        -0.587196
 H        -0.449738         0.853193         0.069353
 H         0.277917         0.415254        -1.385867
 H        -0.423629        -0.856916        -0.300010
 H         0.725706        -0.244252         2.459972
 H         0.619923        -1.839221         1.591012
 H         2.875197        -1.178529         3.304240
 H         2.760501        -2.573186         2.316427
 H         4.807501        -1.090981         1.826355
 H         4.280521         1.346856         0.833882
 H         4.299557        -0.947939        -0.865822
