19
Iteration:  4720
 C         0.217045         0.176969        -0.410491
 C         1.377683        -0.109730         0.491359
 C         1.265734        -0.810856         1.845110
 C         2.577010        -1.362418         2.484439
 C         3.790108        -0.860794         1.439028
 C         3.626699         0.492548         0.648385
 O         2.354725         1.004711         0.450709
 C         3.557617        -0.981718        -0.116425
 O         2.149047        -1.174306        -0.385028
 H        -0.337026         1.089396        -0.288594
 H         0.639187         0.407743        -1.459955
 H        -0.477364        -0.653159        -0.402326
 H         0.827467        -0.099529         2.558873
 H         0.618524        -1.639291         1.543316
 H         2.744337        -1.041165         3.605122
 H         2.615396        -2.540419         2.521682
 H         4.830523        -1.180400         1.641382
 H         4.397438         1.292807         0.505038
 H         4.193963        -1.503849        -0.765599
