19
Iteration:  2238charge 0 multiplicity 1
 C         0.205825         0.050005        -0.516095
 C         1.458614        -0.192903         0.446628
 C         1.217054        -0.767085         1.928102
 C         2.580601        -1.502198         2.103366
 C         3.815592        -0.724089         1.507192
 C         3.609751         0.488635         0.657522
 O         2.281642         0.940210         0.695572
 C         3.546363        -0.826436        -0.062238
 O         2.188885        -1.064036        -0.406593
 H        -0.676800         0.580850        -0.096527
 H         0.766470         0.455968        -1.414077
 H        -0.312763        -0.950485        -0.695463
 H         1.145788         0.082100         2.696534
 H         0.527995        -1.677885         2.237292
 H         2.824659        -1.477895         3.251229
 H         2.568354        -2.507450         1.915500
 H         4.880735        -0.940845         1.816769
 H         4.229959         1.325716         0.727078
 H         4.364749        -1.269097        -0.747361
