19
Iteration:   817
 C         0.157102         0.087903        -0.309609
 C         1.469932        -0.229950         0.374275
 C         1.224802        -1.138369         1.609344
 C         2.586388        -1.386763         2.268862
 C         3.764567        -0.717277         1.575219
 C         3.607813         0.485815         0.702180
 O         2.257624         0.999355         0.804507
 C         3.604555        -0.760281        -0.076391
 O         2.258507        -0.955334        -0.566818
 H        -0.377607         0.718172         0.388341
 H         0.257712         0.293861        -1.368116
 H        -0.438515        -0.821888        -0.486198
 H         0.622301        -0.564417         2.332727
 H         0.660071        -2.162473         1.385377
 H         2.676116        -1.059816         3.334643
 H         2.825211        -2.454564         2.290441
 H         4.863683        -0.859319         1.907312
 H         4.407858         1.211712         0.619972
 H         4.320570        -1.141903        -0.845539
