19
Iteration:  2322
 C         0.162319         0.116444        -0.207970
 C         1.510317        -0.192223         0.336146
 C         1.299368        -1.039375         1.602847
 C         2.597322        -1.214824         2.439409
 C         3.718452        -0.818016         1.498145
 C         3.604192         0.407822         0.712700
 O         2.304642         0.954842         0.643003
 C         3.547791        -0.920345        -0.016835
 O         2.209552        -0.964610        -0.605967
 H        -0.458337         0.870945         0.290097
 H         0.273584         0.573569        -1.171195
 H        -0.367820        -0.889280        -0.356437
 H         0.622193        -0.402426         2.124856
 H         0.710533        -1.957024         1.384082
 H         2.534817        -0.564643         3.322460
 H         2.666786        -2.333572         2.828536
 H         4.760525        -1.050009         1.791883
 H         4.355074         1.163617         0.506679
 H         4.457628        -1.378993        -0.605206
