19
Iteration:  3821charge 0 multiplicity 1
 C         0.209723         0.118955        -0.419148
 C         1.453509        -0.155182         0.401559
 C         1.256946        -0.735078         1.813329
 C         2.652110        -1.270213         2.355405
 C         3.816184        -0.895336         1.484143
 C         3.572816         0.376075         0.644751
 O         2.253800         0.987701         0.608319
 C         3.550584        -0.944613        -0.090137
 O         2.175862        -1.158398        -0.418741
 H        -0.171074         1.011073         0.043306
 H         0.468888         0.298298        -1.493601
 H        -0.490084        -0.688581        -0.250587
 H         0.950809         0.199521         2.441721
 H         0.470859        -1.476503         1.837487
 H         2.854784        -1.020503         3.409342
 H         2.399172        -2.357417         2.329799
 H         4.842921        -0.996955         1.791833
 H         4.354146         1.032106         0.423914
 H         4.357076        -1.262824        -0.758986
