19
Iteration:  4161
 C         0.155966         0.062736        -0.326818
 C         1.437533        -0.166838         0.422988
 C         1.275225        -0.704746         1.866809
 C         2.652905        -1.251277         2.467252
 C         3.669235        -0.923154         1.433777
 C         3.551996         0.354401         0.700824
 O         2.314699         0.976834         0.468441
 C         3.558382        -0.990542        -0.014909
 O         2.258213        -1.061533        -0.587691
 H        -0.169008         1.054742         0.078876
 H         0.510668         0.175201        -1.380304
 H        -0.514287        -0.806657        -0.155074
 H         0.782391         0.163808         2.292793
 H         0.542081        -1.486183         1.987902
 H         2.784924        -0.470329         3.244570
 H         2.596187        -2.331549         2.738012
 H         4.737573        -1.008562         1.735508
 H         4.552471         0.705298         0.562710
 H         4.450515        -1.263885        -0.718663
