19
Iteration:  4753charge 0 multiplicity 1
 C         0.163697         0.126607        -0.296594
 C         1.429033        -0.280300         0.336232
 C         1.251717        -0.694367         1.722148
 C         2.554883        -1.224227         2.333716
 C         3.838903        -0.870973         1.473585
 C         3.632618         0.396060         0.658191
 O         2.346667         0.927874         0.575330
 C         3.604836        -0.994602        -0.004476
 O         2.161513        -1.077742        -0.420402
 H        -0.233674         0.779350         0.465521
 H         0.351873         0.673307        -1.285252
 H        -0.588722        -0.638297        -0.466538
 H         0.806781         0.169159         2.178613
 H         0.509833        -1.495339         1.897162
 H         2.530163        -0.806103         3.387755
 H         2.455586        -2.352614         2.403406
 H         4.825881        -1.201257         1.849662
 H         4.347841         1.154902         0.298368
 H         4.216763        -1.441683        -0.796498
