19
Iteration:  4327charge 0 multiplicity 1
 C         0.209778         0.349518        -0.355111
 C         1.471078        -0.268773         0.385160
 C         1.227101        -0.841930         1.793225
 C         2.687712        -1.196826         2.446575
 C         3.777292        -0.736115         1.523873
 C         3.580048         0.420655         0.613557
 O         2.271354         0.878473         0.492831
 C         3.529393        -0.971227        -0.025240
 O         2.186152        -1.284904        -0.460752
 H        -0.127688         1.293585         0.135404
 H         0.604489         0.737930        -1.367250
 H        -0.693614        -0.232944        -0.617060
 H         0.733409        -0.119507         2.338896
 H         0.531698        -1.767662         1.889339
 H         2.825436        -0.686627         3.408285
 H         2.789629        -2.351887         2.506033
 H         4.768079        -1.032263         1.827137
 H         4.327320         1.189931         0.363749
 H         4.187923        -1.656898        -0.499783
