19
Iteration:  2173charge 0 multiplicity 1
 C         0.182662         0.225290        -0.163558
 C         1.433338        -0.274833         0.369317
 C         1.295992        -1.101547         1.609445
 C         2.572814        -1.290747         2.403288
 C         3.756627        -0.716666         1.544243
 C         3.588362         0.492809         0.632669
 O         2.281985         0.971730         0.597054
 C         3.608428        -0.928882         0.051425
 O         2.240242        -1.045116        -0.610913
 H        -0.236674         0.906491         0.626977
 H         0.376543         0.852099        -1.090917
 H        -0.696068        -0.442591        -0.522736
 H         0.317431        -0.841702         2.119859
 H         0.994280        -2.095545         1.118170
 H         2.403744        -0.717337         3.398420
 H         2.649712        -2.321254         2.646779
 H         4.822753        -0.960888         1.715735
 H         4.386865         1.222104         0.482416
 H         4.427203        -1.345092        -0.552793
