19
Iteration:   107
 C         0.222863         0.242179        -0.261939
 C         1.451100        -0.348229         0.382027
 C         1.202684        -1.081001         1.623885
 C         2.587453        -1.300294         2.253908
 C         3.772857        -0.749260         1.465865
 C         3.567507         0.536724         0.665775
 O         2.234226         0.879947         0.842084
 C         3.628086        -0.698478        -0.104203
 O         2.300212        -1.138979        -0.531743
 H        -0.315919         0.936015         0.320419
 H         0.327923         0.785245        -1.210713
 H        -0.547831        -0.501040        -0.392158
 H         0.498876        -0.511003         2.223606
 H         0.685809        -2.044591         1.426680
 H         2.569827        -0.769983         3.256515
 H         2.780130        -2.312082         2.521064
 H         4.735721        -1.093236         1.869487
 H         4.222052         1.371783         0.608911
 H         4.362979        -0.996129        -0.805289
