19
Iteration:  1830
 C         0.095279         0.136181        -0.316802
 C         1.418173        -0.193332         0.436156
 C         1.210779        -0.895030         1.745063
 C         2.672034        -1.580109         2.137904
 C         3.774775        -0.688820         1.564644
 C         3.556183         0.565650         0.703561
 O         2.245938         1.009425         0.545864
 C         3.650965        -0.834172         0.021794
 O         2.299728        -1.155144        -0.395173
 H        -0.526046         0.833492         0.273643
 H         0.337456         0.900209        -1.155127
 H        -0.562124        -0.651338        -0.722547
 H         1.013892        -0.167887         2.432086
 H         0.405746        -1.644822         1.533233
 H         2.681595        -1.816269         3.255484
 H         2.875043        -2.552382         1.726702
 H         4.792455        -0.811047         1.977173
 H         4.354804         1.351192         0.520073
 H         4.416297        -1.287218        -0.669661
