19
Iteration:  3385charge 0 multiplicity 1
 C         0.112884         0.135581        -0.378357
 C         1.390490        -0.219519         0.432882
 C         1.308579        -0.655692         1.860173
 C         2.574350        -1.413283         2.303392
 C         3.767938        -0.839021         1.485436
 C         3.608604         0.494304         0.658058
 O         2.253375         0.911092         0.487556
 C         3.637175        -0.858985        -0.112972
 O         2.312051        -1.215004        -0.361753
 H        -0.691084         0.581909         0.327593
 H         0.555450         0.826846        -1.062047
 H        -0.474417        -0.727890        -0.819089
 H         1.298771         0.274956         2.351882
 H         0.290906        -1.197045         2.022319
 H         2.721011        -1.245805         3.398511
 H         2.285238        -2.452940         2.261611
 H         4.681398        -0.913576         2.063088
 H         4.246640         1.265348         0.428309
 H         4.301389        -1.331863        -0.885205
