19
Iteration:  2765charge 0 multiplicity 1
 C         0.201572         0.140513        -0.282153
 C         1.483526        -0.224642         0.432770
 C         1.242890        -0.968346         1.726107
 C         2.569564        -1.292943         2.294105
 C         3.712974        -0.847750         1.446010
 C         3.588241         0.452579         0.646153
 O         2.283315         1.038671         0.582929
 C         3.609401        -0.831659        -0.022551
 O         2.232671        -1.132192        -0.436792
 H        -0.350468         0.969419         0.220379
 H         0.362809         0.517929        -1.353568
 H        -0.439566        -0.786113        -0.440079
 H         0.629407        -0.337626         2.414274
 H         0.852627        -1.952938         1.656661
 H         2.912729        -0.793272         3.240935
 H         2.564384        -2.420542         2.451947
 H         4.699824        -0.985790         1.860187
 H         4.377746         1.254972         0.516276
 H         4.293501        -1.156205        -0.705472
