19
Iteration:  3920charge 0 multiplicity 1
 C         0.146171         0.082187        -0.312816
 C         1.459608        -0.135687         0.378964
 C         1.337673        -0.771915         1.756081
 C         2.607221        -1.244975         2.485168
 C         3.691614        -0.898451         1.513269
 C         3.622672         0.336279         0.641278
 O         2.357827         0.983829         0.502835
 C         3.536288        -0.987175        -0.043835
 O         2.159172        -1.004666        -0.534294
 H        -0.623344         0.664487         0.224492
 H         0.422144         0.609456        -1.195105
 H        -0.094239        -0.979915        -0.425781
 H         0.620717        -0.138298         2.386015
 H         0.674640        -1.665878         1.674777
 H         2.737402        -0.661453         3.392106
 H         2.668222        -2.256932         2.862263
 H         4.717049        -1.022971         1.817672
 H         4.620056         0.808119         0.489106
 H         4.226752        -1.634651        -0.662047
