19
Iteration:  4603charge 0 multiplicity 1
 C         0.228347         0.232429        -0.345731
 C         1.401525        -0.237149         0.442638
 C         1.169821        -0.887876         1.756257
 C         2.649991        -1.043518         2.379543
 C         3.791243        -0.907865         1.442542
 C         3.653651         0.340374         0.541238
 O         2.328459         0.922605         0.646908
 C         3.584344        -1.012112        -0.017185
 O         2.157350        -1.122847        -0.472053
 H        -0.459082         0.899040         0.141980
 H         0.454731         0.801536        -1.312380
 H        -0.359173        -0.632340        -0.625282
 H         0.737194        -0.213614         2.424101
 H         0.575502        -1.875353         1.494033
 H         2.634374        -0.275970         3.052633
 H         2.615400        -1.975877         2.978219
 H         4.781417        -1.047874         1.860965
 H         4.385031         1.164477         0.603217
 H         4.173516        -1.513789        -0.721552
