19
Iteration:    31charge 0 multiplicity 1
 C         0.060325        -0.001767        -0.185230
 C         1.455750        -0.157832         0.346505
 C         1.310880        -1.059470         1.579263
 C         2.573008        -1.199330         2.324078
 C         3.747490        -0.984518         1.410470
 C         3.672326         0.455637         0.721183
 O         2.268184         0.915122         0.808843
 C         3.630968        -0.806109        -0.033312
 O         2.267091        -0.894633        -0.609545
 H        -0.560155         0.456470         0.497800
 H         0.023283         0.645940        -1.104655
 H        -0.493776        -0.717870        -0.738010
 H         0.691764        -0.501464         2.284973
 H         0.813617        -2.030326         1.302282
 H         2.566009        -0.292825         3.006916
 H         2.549448        -2.158699         2.780005
 H         4.853222        -1.014630         1.813729
 H         4.297981         1.284519         0.940175
 H         4.348050        -1.012520        -0.842175
