19
Iteration:  2350
 C         0.155978         0.219687        -0.408733
 C         1.402819        -0.202880         0.412491
 C         1.235186        -1.165424         1.706903
 C         2.639776        -1.092418         2.472311
 C         3.823123        -0.994403         1.365765
 C         3.621746         0.420144         0.672714
 O         2.253473         0.917861         0.728308
 C         3.605742        -0.845723        -0.053036
 O         2.205124        -1.003984        -0.492327
 H        -0.281551         1.140301         0.007921
 H         0.622277         0.631052        -1.380342
 H        -0.582693        -0.532188        -0.433231
 H         0.221300        -1.009560         2.237902
 H         1.107628        -2.146405         1.171091
 H         2.731176        -0.084586         3.062001
 H         2.624673        -1.814372         3.197346
 H         4.788807        -1.197883         1.730059
 H         4.327309         1.296666         0.397346
 H         4.346981        -1.032874        -0.696383
