19
Iteration:  2945charge 0 multiplicity 1
 C         0.205350         0.110766        -0.409915
 C         1.461457        -0.207066         0.450987
 C         1.298064        -0.709842         1.980562
 C         2.601028        -1.506402         2.185393
 C         3.769769        -0.773428         1.514877
 C         3.523836         0.491450         0.651577
 O         2.229839         0.924686         0.471974
 C         3.553819        -0.823178         0.048547
 O         2.275605        -1.132530        -0.447368
 H        -0.251335         0.959474         0.113952
 H         0.550693         0.327660        -1.344790
 H        -0.510264        -0.735057        -0.441796
 H         1.030346         0.163462         2.549253
 H         0.394810        -1.431572         2.047985
 H         2.824221        -1.720403         3.257126
 H         2.541166        -2.411066         1.647054
 H         4.758837        -0.971780         1.868404
 H         4.375177         1.206478         0.540035
 H         4.295260        -1.104280        -0.610373
