19
Iteration:   796
 C         0.100509         0.229263        -0.186977
 C         1.462355        -0.253441         0.366824
 C         1.310116        -1.183206         1.539284
 C         2.618549        -1.341705         2.374884
 C         3.725090        -0.818117         1.491552
 C         3.552025         0.577367         0.784570
 O         2.194795         0.912686         0.605689
 C         3.631122        -0.806585         0.024628
 O         2.327851        -0.958790        -0.581615
 H        -0.291981         0.794816         0.652021
 H         0.310279         0.745469        -1.116656
 H        -0.546092        -0.593168        -0.506885
 H         0.470160        -1.017815         2.214873
 H         1.037279        -2.198451         0.992258
 H         2.613462        -0.782963         3.313216
 H         2.747947        -2.353957         2.626280
 H         4.803353        -0.976948         1.796582
 H         4.305093         1.330834         0.649979
 H         4.447884        -1.102574        -0.661496
