19
Iteration:  2282charge 0 multiplicity 1
 C         0.119242         0.211301        -0.305246
 C         1.437166        -0.209791         0.415895
 C         1.264815        -0.857642         1.741527
 C         2.629068        -1.457015         2.239883
 C         3.743994        -0.806257         1.462116
 C         3.555362         0.523780         0.781112
 O         2.260053         0.934494         0.482824
 C         3.650204        -0.816102        -0.011736
 O         2.267811        -1.183892        -0.431746
 H        -0.514578         0.668026         0.458396
 H         0.548838         0.862827        -1.105295
 H        -0.328641        -0.768458        -0.498963
 H         0.978151         0.015025         2.436733
 H         0.331851        -1.546857         1.564610
 H         2.747737        -1.236499         3.384247
 H         2.712232        -2.514479         2.209763
 H         4.749636        -0.810892         1.975994
 H         4.237828         1.303823         0.816227
 H         4.350505        -1.101199        -0.861596
