19
Iteration:  2156charge 0 multiplicity 1
 C         0.182578         0.333814        -0.267889
 C         1.469068        -0.272067         0.325245
 C         1.272763        -1.274939         1.584596
 C         2.611072        -1.116408         2.391558
 C         3.722283        -0.823039         1.501388
 C         3.605287         0.474689         0.634545
 O         2.247839         0.944214         0.737533
 C         3.532042        -0.866221        -0.064534
 O         2.268454        -1.085678        -0.493364
 H        -0.165356         1.024377         0.475243
 H         0.349154         0.889963        -1.219264
 H        -0.405377        -0.489487        -0.518721
 H         0.430407        -0.869567         2.170716
 H         1.026314        -2.270156         1.302600
 H         2.559734        -0.364599         3.121929
 H         2.908989        -2.104568         2.931340
 H         4.733153        -1.008969         1.956086
 H         4.310930         1.260197         0.466836
 H         4.305995        -1.330903        -0.766288
