19
Iteration:   208charge 0 multiplicity 1
 C         0.147237         0.241626        -0.368372
 C         1.451729        -0.258169         0.365770
 C         1.285336        -0.954422         1.754921
 C         2.661217        -1.579560         2.133109
 C         3.774301        -0.727039         1.503643
 C         3.462114         0.532720         0.749848
 O         2.173457         0.963217         0.639195
 C         3.655066        -0.706253        -0.014672
 O         2.299512        -1.177068        -0.390446
 H        -0.528689         0.623970         0.430330
 H         0.353391         1.015201        -1.028233
 H        -0.278592        -0.527169        -0.918008
 H         1.127938        -0.104152         2.412701
 H         0.569724        -1.770950         1.715429
 H         2.715585        -1.465769         3.255043
 H         2.778675        -2.584516         1.785631
 H         4.804838        -0.741184         1.903848
 H         4.254866         1.381785         0.822803
 H         4.444505        -1.051001        -0.762213
