19
Iteration:   650
 C         0.096379         0.111209        -0.315460
 C         1.375337        -0.216056         0.405445
 C         1.301766        -0.990748         1.717732
 C         2.643498        -1.604141         2.067934
 C         3.805054        -0.808581         1.537213
 C         3.492586         0.532180         0.805993
 O         2.183836         1.091574         0.532423
 C         3.660432        -0.693029         0.013962
 O         2.370012        -1.063789        -0.346614
 H        -0.402063         0.694733         0.460554
 H         0.380057         0.475338        -1.298721
 H        -0.379960        -0.863623        -0.495298
 H         0.824582        -0.319267         2.571190
 H         0.461197        -1.834683         1.444423
 H         2.666287        -1.594240         3.154842
 H         2.753131        -2.584529         1.618782
 H         4.725851        -0.982519         1.966378
 H         4.175848         1.432271         0.640335
 H         4.491686        -0.884312        -0.739821
