19
Iteration:  1992
 C         0.212420        -0.008385        -0.384220
 C         1.435261        -0.143065         0.430953
 C         1.192350        -0.890007         1.748724
 C         2.613626        -1.428109         2.251629
 C         3.802080        -0.910496         1.401575
 C         3.611527         0.447104         0.737818
 O         2.239924         1.006168         0.661035
 C         3.627132        -0.711291        -0.047027
 O         2.207236        -0.996566        -0.437970
 H        -0.414297         0.699330         0.047180
 H         0.475893         0.365174        -1.369125
 H        -0.107406        -0.976700        -0.505483
 H         0.791004        -0.373815         2.666302
 H         0.567857        -1.840029         1.486999
 H         2.658485        -0.981441         3.187096
 H         2.546891        -2.507656         2.498473
 H         4.785784        -1.080114         1.919287
 H         4.383390         1.275756         0.724694
 H         4.280378        -1.049612        -0.811565
