19
Iteration:  2095charge 0 multiplicity 1
 C         0.146830         0.080459        -0.313350
 C         1.447149        -0.190079         0.380901
 C         1.248600        -1.005714         1.670619
 C         2.631010        -1.280751         2.376721
 C         3.788018        -0.833813         1.536789
 C         3.637341         0.449879         0.699860
 O         2.273698         0.956154         0.690317
 C         3.572019        -0.865574        -0.058962
 O         2.239334        -0.953363        -0.594768
 H        -0.606477         0.682413         0.266131
 H         0.370346         0.647420        -1.198129
 H        -0.506610        -0.848522        -0.503847
 H         0.493864        -0.523253         2.294952
 H         0.908918        -2.030371         1.315448
 H         2.595729        -0.778076         3.413280
 H         2.673965        -2.308524         2.573538
 H         4.722186        -1.108268         1.938662
 H         4.350090         1.330621         0.674883
 H         4.199551        -1.408442        -0.731630
