19
Iteration:   930
 C         0.166275         0.076267        -0.259353
 C         1.470865        -0.217956         0.366090
 C         1.274545        -1.021381         1.696732
 C         2.651313        -1.449426         2.310363
 C         3.776794        -0.906082         1.412981
 C         3.491802         0.565363         0.839422
 O         2.168955         1.009429         0.611200
 C         3.649749        -0.769429        -0.002500
 O         2.318615        -0.977878        -0.563953
 H        -0.553446         0.419996         0.469420
 H         0.341722         0.806992        -1.072683
 H        -0.341077        -0.730178        -0.801017
 H         0.830845        -0.299014         2.383903
 H         0.644978        -1.917829         1.324596
 H         2.741647        -0.973241         3.259985
 H         2.552116        -2.479968         2.475846
 H         4.747519        -1.080793         1.857642
 H         4.182957         1.398661         0.801318
 H         4.334845        -1.027980        -0.736897
