19
Iteration:  4719
 C         0.214380         0.184377        -0.416115
 C         1.388537        -0.127519         0.489941
 C         1.266019        -0.817088         1.841349
 C         2.579712        -1.366251         2.482820
 C         3.799695        -0.861991         1.448444
 C         3.626150         0.499036         0.648111
 O         2.349094         1.002489         0.443528
 C         3.546397        -0.984131        -0.116174
 O         2.146675        -1.167214        -0.380880
 H        -0.295216         1.124965        -0.281808
 H         0.637243         0.398777        -1.448044
 H        -0.471240        -0.663260        -0.421807
 H         0.818438        -0.111936         2.608394
 H         0.643669        -1.579175         1.529512
 H         2.776783        -1.050192         3.597692
 H         2.604312        -2.480841         2.513496
 H         4.833257        -1.179982         1.694008
 H         4.399893         1.291756         0.506689
 H         4.125160        -1.485938        -0.754984
