19
Iteration:  3946
 C         0.144105         0.225547        -0.374820
 C         1.384923        -0.167686         0.429821
 C         1.186393        -0.893071         1.724599
 C         2.589735        -1.045751         2.394843
 C         3.825856        -0.905404         1.422061
 C         3.694004         0.382039         0.595795
 O         2.339882         0.940385         0.652473
 C         3.562379        -0.981859        -0.076248
 O         2.179420        -1.202093        -0.399061
 H        -0.362287         1.116599         0.073637
 H         0.647183         0.654143        -1.288520
 H        -0.514105        -0.657900        -0.471325
 H         0.408966        -0.498613         2.293162
 H         0.825927        -1.971023         1.561398
 H         2.664923        -0.279815         3.212321
 H         2.732911        -2.076931         2.927732
 H         4.844766        -1.273477         1.683305
 H         4.554854         1.005370         0.433502
 H         4.294743        -1.255979        -0.784214
