19
Iteration:  1075
 C         0.233458         0.075163        -0.417085
 C         1.404905        -0.191631         0.442524
 C         1.182102        -0.976951         1.727967
 C         2.647962        -1.470684         2.238972
 C         3.848268        -0.917286         1.344455
 C         3.534960         0.536822         0.740010
 O         2.198755         1.019304         0.686240
 C         3.612784        -0.720967        -0.071251
 O         2.259770        -1.020392        -0.366622
 H        -0.498744         0.673539         0.214854
 H         0.574474         0.516580        -1.352713
 H        -0.270562        -0.851446        -0.748468
 H         0.806405        -0.280298         2.611187
 H         0.465342        -1.890808         1.520307
 H         2.838520        -1.092472         3.263255
 H         2.849198        -2.526761         2.401274
 H         4.777683        -0.889122         1.931394
 H         4.293928         1.342119         0.985875
 H         4.308319        -1.047111        -0.920659
