19
Iteration:  3448
 C         0.119412         0.117437        -0.325274
 C         1.471251        -0.195138         0.403028
 C         1.230396        -0.839649         1.778293
 C         2.595117        -1.194367         2.435529
 C         3.748843        -0.864253         1.481736
 C         3.601023         0.366844         0.687126
 O         2.326785         0.961378         0.535565
 C         3.520402        -0.932060        -0.128247
 O         2.292808        -1.116222        -0.473013
 H        -0.200875         1.084857         0.144116
 H         0.183641         0.296358        -1.346206
 H        -0.533549        -0.772107        -0.189653
 H         0.668701        -0.103970         2.474612
 H         0.551485        -1.721089         1.624334
 H         2.874717        -0.733648         3.367100
 H         2.765681        -2.251396         2.435154
 H         4.717850        -0.893513         1.962454
 H         4.323634         1.105692         0.481593
 H         4.357606        -1.098089        -0.858452
