19
Iteration:  1429charge 0 multiplicity 1
 C         0.107651         0.127901        -0.279385
 C         1.473349        -0.244731         0.371846
 C         1.282263        -1.055908         1.684421
 C         2.620681        -1.166612         2.361280
 C         3.736070        -0.964861         1.398290
 C         3.594142         0.400689         0.773188
 O         2.249309         0.925628         0.687953
 C         3.583258        -0.771694        -0.068682
 O         2.285201        -0.964741        -0.576440
 H        -0.282859         0.993171         0.275649
 H         0.146866         0.613493        -1.235603
 H        -0.647390        -0.692529        -0.440962
 H         0.358098        -0.841690         2.273306
 H         1.236968        -2.037721         1.359822
 H         2.782925        -0.342853         3.149744
 H         2.728801        -1.975981         3.125043
 H         4.663623        -1.185514         1.853528
 H         4.347933         1.208263         0.777271
 H         4.402134        -1.065474        -0.732820
