19
Iteration:  1997
 C         0.259190        -0.027341        -0.425777
 C         1.449653        -0.134041         0.468539
 C         1.197053        -0.875894         1.796939
 C         2.610968        -1.463701         2.191846
 C         3.789763        -0.883370         1.394084
 C         3.609316         0.463173         0.776533
 O         2.245329         1.014837         0.661054
 C         3.556246        -0.754357        -0.054614
 O         2.218920        -1.006118        -0.410316
 H        -0.577417         0.666341        -0.032954
 H         0.455960         0.391628        -1.442866
 H        -0.150316        -1.116136        -0.430751
 H         0.861199        -0.257590         2.612484
 H         0.535873        -1.623440         1.361117
 H         2.802182        -0.964594         3.233740
 H         2.503537        -2.528529         2.385183
 H         4.772091        -0.993959         1.831578
 H         4.377745         1.174054         0.664256
 H         4.380486        -0.830127        -0.873700
