19
Iteration:  2356charge 0 multiplicity 1
 C         0.173975         0.297669        -0.401857
 C         1.428985        -0.229965         0.382209
 C         1.243403        -1.200968         1.704519
 C         2.619428        -1.059942         2.422432
 C         3.848030        -0.950390         1.411173
 C         3.579917         0.411472         0.652908
 O         2.228627         0.889701         0.771083
 C         3.576111        -0.840898        -0.062469
 O         2.222193        -1.013193        -0.476967
 H        -0.304960         1.179496         0.038085
 H         0.742157         0.393849        -1.336486
 H        -0.571371        -0.544612        -0.533814
 H         0.407931        -0.790012         2.283430
 H         1.007835        -2.204973         1.255044
 H         2.579517        -0.086648         2.962034
 H         2.760962        -1.867400         3.282129
 H         4.922042        -1.251557         1.633902
 H         4.263879         1.117177         0.343182
 H         4.394397        -1.150521        -0.847582
