19
Iteration:  4158
 C         0.145919         0.074072        -0.322920
 C         1.464140        -0.177966         0.415332
 C         1.308043        -0.698759         1.905374
 C         2.620487        -1.258749         2.470679
 C         3.664633        -0.934913         1.412875
 C         3.539903         0.334380         0.704086
 O         2.304251         0.965683         0.449651
 C         3.545059        -0.980092        -0.012190
 O         2.285332        -1.051527        -0.598192
 H        -0.175856         1.103670         0.024166
 H         0.467542         0.147662        -1.294130
 H        -0.536148        -0.819338        -0.217114
 H         0.749232         0.234572         2.328274
 H         0.589438        -1.432866         1.965557
 H         2.851152        -0.481366         3.349787
 H         2.651265        -2.329835         2.660464
 H         4.700431        -0.967258         1.730957
 H         4.475461         0.850850         0.574308
 H         4.391984        -1.286634        -0.548784
