19
Iteration:  3446charge 0 multiplicity 1
 C         0.105096         0.121881        -0.337733
 C         1.449952        -0.179417         0.408529
 C         1.223150        -0.849679         1.772215
 C         2.606073        -1.213252         2.430038
 C         3.748646        -0.849373         1.497654
 C         3.609574         0.355948         0.668569
 O         2.333191         0.973409         0.532617
 C         3.523180        -0.935711        -0.117768
 O         2.280799        -1.123157        -0.465633
 H        -0.153038         1.030210         0.183905
 H         0.233595         0.289008        -1.415969
 H        -0.438190        -0.791795        -0.168000
 H         0.693733        -0.119571         2.483264
 H         0.575939        -1.661767         1.669277
 H         2.908070        -0.789456         3.382576
 H         2.727561        -2.315748         2.406243
 H         4.735299        -0.805635         1.963341
 H         4.379402         1.172539         0.485947
 H         4.382995        -1.075291        -0.838547
