19
Iteration:  2441
 C         0.154690        -0.020074        -0.309078
 C         1.520995        -0.120460         0.384090
 C         1.274095        -0.789056         1.773028
 C         2.543845        -1.440166         2.301497
 C         3.726637        -0.848161         1.499489
 C         3.642875         0.458784         0.635079
 O         2.277856         1.020339         0.582310
 C         3.556117        -0.834776         0.016053
 O         2.240421        -1.057688        -0.499131
 H        -0.570566         0.431072         0.373443
 H         0.128242         0.706813        -1.074254
 H        -0.236454        -1.021922        -0.606712
 H         1.038882        -0.047203         2.473576
 H         0.455718        -1.441123         1.776677
 H         2.619077        -1.307983         3.344279
 H         2.656238        -2.527486         2.164283
 H         4.782444        -1.094331         1.837211
 H         4.435823         1.149995         0.571329
 H         4.425127        -1.171530        -0.710531
