19
Iteration:  3480charge 0 multiplicity 1
 C         0.151557         0.191574        -0.304424
 C         1.461470        -0.270881         0.328829
 C         1.255295        -1.038214         1.699227
 C         2.640850        -1.011317         2.465020
 C         3.780369        -0.908578         1.495371
 C         3.618154         0.397839         0.603206
 O         2.310992         0.913344         0.652999
 C         3.490395        -0.967467        -0.021128
 O         2.248042        -1.056215        -0.567212
 H        -0.206793         1.095155         0.182358
 H         0.133775         0.458587        -1.308400
 H        -0.727704        -0.394962        -0.155917
 H         0.591923        -0.322300         2.294225
 H         0.724553        -1.941640         1.557519
 H         2.607462        -0.175927         3.170454
 H         2.886627        -1.894256         3.050530
 H         4.743765        -1.043989         1.937793
 H         4.365537         1.134240         0.516672
 H         4.220613        -1.407090        -0.731470
