19
Iteration:  4864
 C         0.137450         0.247770        -0.374716
 C         1.416574        -0.257332         0.386652
 C         1.223290        -0.873756         1.839659
 C         2.693318        -1.140073         2.481468
 C         3.697644        -0.928550         1.467469
 C         3.618362         0.385136         0.688130
 O         2.368196         0.979728         0.487570
 C         3.498262        -0.929224        -0.075609
 O         2.224842        -1.165140        -0.504679
 H        -0.305222         1.110255         0.198355
 H         0.514927         0.531065        -1.361569
 H        -0.631418        -0.557783        -0.316403
 H         0.596659        -0.182218         2.343779
 H         0.737681        -1.931238         1.709482
 H         2.901803        -0.573084         3.375949
 H         2.809892        -2.206500         2.836914
 H         4.703522        -1.129165         1.799842
 H         4.489284         1.005728         0.630765
 H         4.331667        -1.206834        -0.821154
