19
Iteration:  2020
 C         0.195494         0.050857        -0.462841
 C         1.401517        -0.221746         0.380320
 C         1.288415        -0.807245         1.836389
 C         2.650120        -1.513641         2.191385
 C         3.778690        -0.818637         1.469562
 C         3.574442         0.502192         0.732287
 O         2.205524         1.035039         0.683064
 C         3.627349        -0.771561        -0.037365
 O         2.228083        -1.079161        -0.406780
 H        -0.607879         0.756085        -0.033183
 H         0.520402         0.623543        -1.339472
 H        -0.233501        -1.023551        -0.731468
 H         1.214807         0.022702         2.553708
 H         0.528116        -1.572288         1.892065
 H         2.690830        -1.759182         3.317824
 H         2.437999        -2.505081         1.733000
 H         4.759366        -0.962984         1.840290
 H         4.297352         1.347514         0.837492
 H         4.317887        -1.311323        -0.717086
