19
Iteration:  3477charge 0 multiplicity 1
 C         0.164930         0.181115        -0.291454
 C         1.446330        -0.282274         0.337218
 C         1.252066        -1.020557         1.685087
 C         2.631248        -1.023497         2.460006
 C         3.778477        -0.934154         1.501242
 C         3.630795         0.409212         0.594483
 O         2.306367         0.915846         0.644368
 C         3.481008        -0.957341        -0.019094
 O         2.243575        -1.055527        -0.567314
 H        -0.142379         1.113260         0.190908
 H         0.091464         0.476078        -1.417287
 H        -0.718914        -0.471326        -0.143205
 H         0.683251        -0.310549         2.294243
 H         0.652424        -1.904536         1.615118
 H         2.702521        -0.124605         3.151846
 H         2.906437        -1.950873         3.051373
 H         4.782891        -1.016437         1.953697
 H         4.397040         1.289468         0.608457
 H         4.287072        -1.399608        -0.669323
