19
Iteration:    43charge 0 multiplicity 1
 C         0.155628         0.066106        -0.210498
 C         1.494368        -0.253318         0.391153
 C         1.299029        -1.102948         1.575489
 C         2.601822        -1.190070         2.371204
 C         3.742203        -0.904771         1.441738
 C         3.562824         0.434995         0.726592
 O         2.250629         0.944183         0.779966
 C         3.543636        -0.855749        -0.095114
 O         2.272238        -0.815747        -0.634974
 H        -0.476755         0.379249         0.550374
 H         0.292398         0.809764        -0.972760
 H        -0.080413        -0.915078        -0.448478
 H         0.462761        -0.689590         2.136296
 H         0.959158        -2.096990         1.186873
 H         2.629879        -0.402919         3.170196
 H         2.734187        -2.078042         2.949539
 H         4.735961        -1.264329         1.801075
 H         4.345239         1.161474         0.673548
 H         4.294536        -1.334444        -0.691754
