19
Iteration:  4195charge 0 multiplicity 1
 C         0.155558         0.218704        -0.357607
 C         1.386474        -0.178972         0.418513
 C         1.160598        -0.851618         1.682873
 C         2.638842        -1.107835         2.347437
 C         3.764735        -0.760439         1.466856
 C         3.693329         0.400997         0.530637
 O         2.379721         0.908929         0.619723
 C         3.546177        -1.012761         0.005709
 O         2.200608        -1.209994        -0.330907
 H        -0.450841         0.936078         0.182647
 H         0.372966         0.674418        -1.410180
 H        -0.557380        -0.597536        -0.454671
 H         0.533289        -0.412235         2.412446
 H         0.781017        -1.872110         1.378474
 H         2.717898        -0.725791         3.357206
 H         2.607686        -2.184740         2.676973
 H         4.772213        -1.097876         1.752023
 H         4.534444         1.027873         0.153190
 H         4.314567        -1.484198        -0.711317
