19
Iteration:  1091
 C         0.246597         0.175520        -0.473451
 C         1.418319        -0.226003         0.448578
 C         1.318842        -0.948698         1.787969
 C         2.687183        -1.478063         2.218856
 C         3.795484        -0.738090         1.517608
 C         3.493183         0.492543         0.759085
 O         2.165032         0.936183         0.734928
 C         3.542891        -0.752936        -0.099456
 O         2.230233        -1.088114        -0.451942
 H        -0.573545         0.750477        -0.042400
 H         0.836771         0.683073        -1.259505
 H        -0.129929        -0.790426        -0.827596
 H         0.984493        -0.203643         2.450239
 H         0.693982        -1.791974         1.720471
 H         2.858208        -1.330788         3.294993
 H         2.642300        -2.539430         1.908267
 H         4.848863        -1.039023         1.697925
 H         4.221001         1.221255         0.527459
 H         4.313027        -0.872678        -0.812362
