19
Iteration:  4192charge 0 multiplicity 1
 C         0.135307         0.197639        -0.376105
 C         1.402246        -0.166016         0.416365
 C         1.194198        -0.840476         1.685115
 C         2.620695        -1.118023         2.354049
 C         3.773828        -0.784985         1.450950
 C         3.698589         0.416459         0.537375
 O         2.378540         0.888187         0.619549
 C         3.542801        -0.980795         0.002195
 O         2.195755        -1.195269        -0.329836
 H        -0.448489         0.967779         0.208714
 H         0.372207         0.594665        -1.351964
 H        -0.574338        -0.668739        -0.388785
 H         0.402618        -0.306047         2.351926
 H         0.854627        -1.791076         1.470448
 H         2.629250        -0.697766         3.446228
 H         2.572426        -2.192342         2.626442
 H         4.787840        -1.140727         1.693966
 H         4.582808         0.950308         0.223474
 H         4.281140        -1.544061        -0.666259
