19
Iteration:   878
 C         0.210749         0.117632        -0.355192
 C         1.433221        -0.249004         0.389212
 C         1.309641        -0.965931         1.788200
 C         2.669275        -1.586538         2.172336
 C         3.746140        -0.749811         1.551380
 C         3.522033         0.563800         0.709732
 O         2.110312         0.981365         0.612839
 C         3.611127        -0.703872        -0.000888
 O         2.336798        -1.030252        -0.466793
 H        -0.516294         0.680174         0.259993
 H         0.465747         0.884870        -1.153153
 H        -0.354452        -0.847837        -0.592825
 H         1.169819        -0.144925         2.562530
 H         0.501212        -1.688748         1.755391
 H         2.620462        -1.766002         3.266638
 H         2.591157        -2.579617         1.616926
 H         4.792683        -1.111483         1.808006
 H         4.264870         1.296305         0.769668
 H         4.340765        -1.103781        -0.601032
