19
Iteration:  4251
 C         0.149884         0.220835        -0.348268
 C         1.412570        -0.214743         0.365628
 C         1.263788        -0.878964         1.766432
 C         2.624548        -1.035927         2.506392
 C         3.771739        -0.908439         1.509152
 C         3.682005         0.302496         0.644413
 O         2.321795         0.947111         0.559119
 C         3.537456        -1.040420        -0.041700
 O         2.195764        -1.099048        -0.563279
 H        -0.504539         0.769850         0.325474
 H         0.145050         0.795553        -1.331403
 H        -0.396873        -0.706381        -0.570249
 H         0.764055        -0.286818         2.424496
 H         0.681113        -1.872263         1.709833
 H         2.776442        -0.191133         3.141990
 H         2.443650        -1.982221         3.071843
 H         4.816878        -1.001990         1.739724
 H         4.491685         1.006709         0.429265
 H         4.257542        -1.497830        -0.619443
