19
Iteration:  4012charge 0 multiplicity 1
 C         0.136458         0.191541        -0.264430
 C         1.520467        -0.150091         0.359171
 C         1.223790        -0.932759         1.674885
 C         2.609208        -1.082143         2.510011
 C         3.703025        -0.864281         1.465947
 C         3.713611         0.306173         0.613988
 O         2.349384         0.990454         0.518186
 C         3.516448        -1.046707        -0.031999
 O         2.169477        -1.083195        -0.450109
 H        -0.391372         0.890211         0.326611
 H         0.147100         0.483833        -1.339614
 H        -0.205434        -0.812714        -0.284696
 H         0.465331        -0.611807         2.321348
 H         0.776567        -1.828367         1.169877
 H         2.780664        -0.275962         3.230729
 H         2.645191        -1.991183         3.175235
 H         4.746216        -1.121720         1.696310
 H         4.423860         1.065434         0.510129
 H         4.292425        -1.428550        -0.743568
