19
Iteration:  3308
 C         0.196115         0.277738        -0.264937
 C         1.433705        -0.271164         0.357501
 C         1.297868        -0.972652         1.675533
 C         2.669785        -1.068015         2.438183
 C         3.773428        -0.799467         1.466496
 C         3.563925         0.363401         0.641259
 O         2.230139         0.864525         0.619823
 C         3.551635        -0.923247        -0.061410
 O         2.235973        -1.189529        -0.472148
 H        -0.153199         1.253596         0.170539
 H         0.438683         0.507838        -1.294360
 H        -0.672504        -0.378118        -0.419687
 H         0.710358        -0.320063         2.217350
 H         0.716147        -1.881755         1.348586
 H         2.612066        -0.269059         3.208526
 H         2.557891        -2.050890         2.836583
 H         4.800886        -1.029541         1.733124
 H         4.369159         1.181026         0.687931
 H         4.382214        -1.159871        -0.796631
