19
Iteration:  1734charge 0 multiplicity 1
 C         0.169201         0.213447        -0.318037
 C         1.420983        -0.209050         0.382370
 C         1.258954        -1.116646         1.619414
 C         2.616938        -1.228432         2.400900
 C         3.759796        -0.776072         1.521668
 C         3.637297         0.423789         0.705473
 O         2.237796         0.884392         0.708410
 C         3.569515        -0.833068        -0.114909
 O         2.242327        -1.025352        -0.560059
 H        -0.361344         0.842835         0.419057
 H         0.357009         0.823955        -1.269031
 H        -0.428753        -0.672445        -0.609535
 H         0.638386        -0.631605         2.492207
 H         0.919824        -2.114580         1.358375
 H         2.675901        -0.691488         3.374105
 H         2.897089        -2.239417         2.716588
 H         4.766862        -1.032929         1.902348
 H         4.301782         1.292383         0.694928
 H         4.413365        -1.064603        -0.733553
