19
Iteration:  3871
 C         0.110904         0.223538        -0.326682
 C         1.456366        -0.175127         0.375970
 C         1.305769        -0.698263         1.784252
 C         2.589583        -1.365231         2.247435
 C         3.813600        -0.801672         1.542058
 C         3.552596         0.445181         0.622273
 O         2.279126         0.965540         0.442170
 C         3.600161        -0.983339        -0.014443
 O         2.240316        -1.263247        -0.296236
 H        -0.439427         0.872030         0.387465
 H         0.443437         0.925427        -1.132865
 H        -0.451622        -0.673491        -0.626194
 H         1.042284         0.101254         2.439851
 H         0.386677        -1.313177         1.704550
 H         2.712294        -1.360338         3.344726
 H         2.509828        -2.446394         2.013513
 H         4.812647        -0.946292         2.038787
 H         4.449403         1.048454         0.693930
 H         4.134616        -1.246318        -0.884854
