19
Iteration:  1569
 C         0.194507         0.167905        -0.354733
 C         1.461857        -0.149067         0.410825
 C         1.284433        -0.882354         1.819470
 C         2.632293        -1.582963         2.175336
 C         3.805856        -0.822403         1.472239
 C         3.495476         0.530901         0.724516
 O         2.190900         0.988726         0.498032
 C         3.628574        -0.726134        -0.003296
 O         2.270739        -1.157635        -0.353589
 H        -0.389421         0.759844         0.344013
 H         0.419115         0.668081        -1.246017
 H        -0.280224        -0.790995        -0.646952
 H         1.011884        -0.056053         2.594310
 H         0.516857        -1.676521         1.742405
 H         2.498776        -1.565354         3.218342
 H         2.521425        -2.633607         2.069278
 H         4.827808        -0.932366         1.743734
 H         4.081255         1.464392         0.801419
 H         4.428204        -1.019445        -0.778727
