19
Iteration:  4435
 C         0.130536         0.196891        -0.331552
 C         1.466411        -0.185413         0.374570
 C         1.161161        -0.755449         1.727348
 C         2.593223        -1.325780         2.362678
 C         3.792072        -0.820880         1.519487
 C         3.614701         0.413152         0.559968
 O         2.378105         1.034208         0.453062
 C         3.582152        -0.944369        -0.025960
 O         2.187846        -1.255262        -0.276758
 H        -0.448180         0.762308         0.428413
 H         0.362025         0.830092        -1.158840
 H        -0.317214        -0.773428        -0.591523
 H         0.888493         0.023184         2.513965
 H         0.564065        -1.695363         1.694784
 H         2.647927        -1.031192         3.399931
 H         2.576642        -2.432232         2.374693
 H         4.862142        -0.879105         1.792528
 H         4.510260         1.043176         0.465115
 H         4.272938        -1.305427        -0.894063
