19
Iteration:  3184charge 0 multiplicity 1
 C         0.201504         0.163442        -0.455767
 C         1.329426        -0.202104         0.399929
 C         1.266890        -0.773874         1.830934
 C         2.681664        -1.442683         2.250931
 C         3.802381        -0.751429         1.488399
 C         3.603979         0.421704         0.665737
 O         2.286253         1.005639         0.497628
 C         3.611692        -0.903123         0.006190
 O         2.149323        -1.177961        -0.286478
 H        -0.628578         0.587307         0.092094
 H         0.488498         0.916738        -1.206980
 H        -0.108997        -0.730479        -0.999198
 H         0.903933         0.023416         2.497314
 H         0.553549        -1.556038         1.992673
 H         2.734606        -1.192055         3.327591
 H         2.785224        -2.507211         2.193936
 H         4.849420        -0.838191         1.862474
 H         4.282362         1.184913         0.524219
 H         4.254418        -1.330841        -0.810003
