19
Iteration:  1888charge 0 multiplicity 1
 C         0.134632         0.116156        -0.390678
 C         1.488070        -0.277067         0.372537
 C         1.273116        -1.036879         1.683199
 C         2.661588        -1.125603         2.424778
 C         3.740587        -0.918382         1.486951
 C         3.565563         0.432020         0.713948
 O         2.284993         0.835002         0.808064
 C         3.549762        -0.815980        -0.072947
 O         2.237958        -0.858623        -0.654184
 H        -0.505578         0.698669         0.318787
 H         0.406663         0.563540        -1.415950
 H        -0.419164        -0.841273        -0.586267
 H         0.412289        -0.675628         2.304555
 H         0.925552        -2.040150         1.539266
 H         2.721493        -0.424327         3.296566
 H         2.779611        -2.169915         2.707127
 H         4.720216        -1.218122         1.931541
 H         4.293324         1.192680         0.534423
 H         4.396662        -1.247821        -0.621448
