19
Iteration:  2213
 C         0.101626         0.068965        -0.307067
 C         1.509586        -0.242398         0.360368
 C         1.239276        -0.787436         1.734819
 C         2.588219        -1.435541         2.307665
 C         3.783993        -0.917192         1.411751
 C         3.560390         0.516009         0.754011
 O         2.255155         1.042610         0.620301
 C         3.595581        -0.845205        -0.033108
 O         2.307851        -1.076725        -0.469572
 H        -0.622572         0.709352         0.202884
 H         0.464503         0.450349        -1.183106
 H        -0.479438        -0.842289        -0.478816
 H         0.834463         0.000787         2.335311
 H         0.524477        -1.659833         1.646597
 H         2.894125        -1.192971         3.315239
 H         2.516684        -2.560856         2.353806
 H         4.732959        -1.032873         1.832332
 H         4.362403         1.343625         0.696293
 H         4.280514        -1.007747        -0.788842
