19
Iteration:  1703
 C         0.209281         0.353537        -0.190610
 C         1.388530        -0.256420         0.384107
 C         1.343726        -1.256001         1.567634
 C         2.611465        -1.118739         2.341443
 C         3.751081        -0.919243         1.527031
 C         3.579069         0.524199         0.629414
 O         2.164528         0.893965         0.637475
 C         3.612546        -0.814495        -0.047820
 O         2.293299        -1.116132        -0.516045
 H        -0.307541         0.915685         0.560821
 H         0.476957         0.996467        -1.078045
 H        -0.592394        -0.177783        -0.618314
 H         0.445522        -1.009007         2.359486
 H         1.167657        -2.269936         1.244955
 H         2.399723        -0.273941         3.037702
 H         2.698289        -2.066819         3.001757
 H         4.753561        -1.168687         1.968218
 H         4.290419         1.363884         0.708287
 H         4.450965        -0.971904        -0.582680
