19
Iteration:  3965charge 0 multiplicity 1
 C         0.309290         0.391745        -0.378994
 C         1.470182        -0.271390         0.395050
 C         1.235919        -1.010374         1.743394
 C         2.591870        -1.017469         2.426185
 C         3.757573        -0.808483         1.470004
 C         3.571545         0.382353         0.523983
 O         2.305074         0.829936         0.673651
 C         3.491656        -0.995915        -0.120109
 O         2.201146        -1.231211        -0.427839
 H         0.103747         1.267368         0.291509
 H         0.531149         0.786614        -1.310648
 H        -0.521449        -0.332521        -0.341463
 H         0.540768        -0.406357         2.348459
 H         0.716930        -2.014949         1.689614
 H         2.593086        -0.234610         3.152609
 H         2.819905        -1.887329         3.038060
 H         4.733171        -0.818946         1.959691
 H         4.076478         1.340896         0.374112
 H         4.227469        -1.397471        -0.766600
