19
Iteration:  1981
 C         0.130380         0.087663        -0.346640
 C         1.436929        -0.215138         0.387599
 C         1.243493        -0.989412         1.703849
 C         2.597870        -1.340275         2.349345
 C         3.784919        -0.922517         1.470425
 C         3.580270         0.512624         0.724945
 O         2.254078         0.988259         0.669994
 C         3.646014        -0.799732        -0.097620
 O         2.272905        -0.978253        -0.481762
 H        -0.545063         0.701045         0.182046
 H         0.413643         0.507062        -1.304490
 H        -0.415499        -0.796650        -0.492344
 H         0.581380        -0.283833         2.278872
 H         0.605067        -1.934258         1.579779
 H         2.757708        -0.934707         3.306615
 H         2.720961        -2.432881         2.403436
 H         4.821258        -1.162429         1.806662
 H         4.337006         1.353863         0.817496
 H         4.312468        -1.224169        -0.806338
