19
Iteration:  2561
 C         0.149489         0.179648        -0.275354
 C         1.442470        -0.228955         0.356871
 C         1.256299        -1.060926         1.712388
 C         2.617383        -1.071692         2.444208
 C         3.726996        -0.988689         1.396891
 C         3.598008         0.448212         0.744803
 O         2.288114         0.909419         0.633564
 C         3.531347        -0.877698        -0.064386
 O         2.286451        -0.996864        -0.579731
 H        -0.303620         1.049876         0.157939
 H         0.250074         0.392268        -1.354403
 H        -0.522151        -0.637814        -0.072588
 H         0.426284        -0.798402         2.344339
 H         1.013382        -2.088402         1.401095
 H         2.845025        -0.252582         3.209404
 H         2.694125        -1.988338         3.034462
 H         4.809576        -1.109958         1.662454
 H         4.404966         1.231999         0.712865
 H         4.382373        -1.253362        -0.662302
