19
Iteration:  4608
 C         0.198830         0.210153        -0.386730
 C         1.397563        -0.195177         0.434743
 C         1.188749        -0.923792         1.742261
 C         2.635409        -1.097628         2.422385
 C         3.797043        -0.874020         1.430492
 C         3.712507         0.337111         0.586606
 O         2.340093         0.928872         0.619783
 C         3.532673        -1.005388        -0.007275
 O         2.127187        -1.097327        -0.471382
 H        -0.529226         0.861461         0.170344
 H         0.591062         0.667175        -1.269337
 H        -0.371827        -0.718254        -0.639043
 H         0.703429        -0.199830         2.491015
 H         0.606223        -1.773474         1.635988
 H         2.749995        -0.156163         3.148559
 H         2.681507        -2.034988         2.971225
 H         4.785132        -1.012639         1.891944
 H         4.541088         1.026772         0.440505
 H         4.268037        -1.440898        -0.801578
