19
Iteration:  1280
 C         0.061580         0.067351        -0.232084
 C         1.488459        -0.201337         0.325860
 C         1.286739        -0.955898         1.696403
 C         2.563278        -1.365907         2.363777
 C         3.742452        -0.950282         1.431728
 C         3.586119         0.457182         0.793418
 O         2.274585         0.959369         0.587654
 C         3.661779        -0.705136        -0.054166
 O         2.320596        -0.956537        -0.546114
 H        -0.703858         0.517603         0.429271
 H         0.042494         0.421852        -1.241113
 H        -0.438173        -0.908582        -0.360365
 H         0.868153        -0.238663         2.333048
 H         0.610096        -1.871187         1.557467
 H         2.817340        -0.781170         3.281976
 H         2.372277        -2.481608         2.620737
 H         4.632767        -1.202906         1.830123
 H         4.321254         1.244799         0.894832
 H         4.335202        -0.945280        -0.830946
