19
Iteration:  3995charge 0 multiplicity 1
 C         0.134759         0.341827        -0.347808
 C         1.382711        -0.236043         0.362740
 C         1.322818        -1.028794         1.754838
 C         2.626867        -1.054792         2.513174
 C         3.785918        -0.864763         1.568264
 C         3.608736         0.359842         0.566935
 O         2.367837         0.917589         0.523781
 C         3.492096        -1.003497        -0.025960
 O         2.193449        -1.141302        -0.521709
 H        -0.240027         1.241053         0.228220
 H         0.490895         0.721372        -1.355026
 H        -0.763096        -0.344598        -0.383203
 H         0.452337        -0.551472         2.364071
 H         1.102414        -2.064441         1.575510
 H         2.612055        -0.253690         3.319920
 H         2.774176        -2.039524         2.917708
 H         4.767070        -1.024533         2.012004
 H         4.384669         1.202665         0.298342
 H         4.250051        -1.535548        -0.637362
