19
Iteration:  4225
 C         0.299511         0.362493        -0.341248
 C         1.405718        -0.319632         0.396245
 C         1.282553        -0.933472         1.735986
 C         2.658683        -1.119691         2.534426
 C         3.699050        -0.818883         1.483262
 C         3.602175         0.401391         0.576537
 O         2.271699         0.869461         0.456522
 C         3.504434        -0.954014        -0.031158
 O         2.181824        -1.196672        -0.407955
 H        -0.293307         0.993523         0.343654
 H         0.721625         1.040037        -1.105227
 H        -0.413982        -0.259780        -0.903801
 H         0.628042        -0.384283         2.496706
 H         0.866757        -1.878710         1.534465
 H         2.855428        -0.329505         3.377780
 H         2.602789        -2.149846         2.965809
 H         4.779362        -0.997461         1.654784
 H         4.320278         1.205992         0.361905
 H         4.303700        -1.490001        -0.669521
