19
Iteration:  4612charge 0 multiplicity 1
 C         0.163958         0.191954        -0.405934
 C         1.414780        -0.164672         0.412759
 C         1.225847        -0.919533         1.755018
 C         2.616871        -1.112224         2.455043
 C         3.796532        -0.859336         1.449384
 C         3.726167         0.349965         0.621924
 O         2.354585         0.930953         0.598465
 C         3.493657        -1.012324        -0.043012
 O         2.121130        -1.080506        -0.459086
 H        -0.492195         0.821656         0.157497
 H         0.674114         0.611459        -1.300274
 H        -0.334797        -0.731777        -0.659307
 H         0.628724        -0.289314         2.418129
 H         0.563050        -1.873677         1.725345
 H         2.805008        -0.326188         3.131877
 H         2.770812        -2.107535         2.990732
 H         4.789749        -1.073548         1.851277
 H         4.599102         0.941812         0.296021
 H         4.185416        -1.322699        -0.698965
