19
Iteration:  4656
 C         0.163727         0.207963        -0.251171
 C         1.491938        -0.221019         0.376887
 C         1.221846        -0.814898         1.772597
 C         2.567870        -1.189429         2.366626
 C         3.741789        -0.847044         1.464624
 C         3.598464         0.374303         0.677964
 O         2.356435         0.949125         0.449645
 C         3.578512        -1.017577        -0.028565
 O         2.251233        -1.123233        -0.433219
 H        -0.390331         0.843225         0.432898
 H         0.320447         0.596007        -1.303255
 H        -0.527696        -0.619546        -0.333309
 H         0.823020        -0.047851         2.412314
 H         0.340213        -1.599459         1.629816
 H         2.594900        -0.585233         3.289663
 H         2.588088        -2.320224         2.671619
 H         4.678339        -1.196766         1.890132
 H         4.327522         1.124781         0.340662
 H         4.217737        -1.375071        -0.760672
