19
Iteration:  1719
 C         0.144130         0.339949        -0.280142
 C         1.461303        -0.321043         0.353316
 C         1.246033        -1.186266         1.624913
 C         2.638779        -1.213083         2.417560
 C         3.828721        -0.890155         1.415198
 C         3.493719         0.487758         0.714895
 O         2.211919         0.954090         0.637463
 C         3.611925        -0.804847        -0.004816
 O         2.299210        -1.077901        -0.485259
 H        -0.296275         1.000953         0.512014
 H         0.537619         1.038472        -0.978440
 H        -0.567137        -0.495601        -0.562952
 H         0.402180        -0.927933         2.093996
 H         1.030263        -2.177356         1.152237
 H         2.614060        -0.300238         3.065578
 H         2.717053        -2.154637         2.963096
 H         4.839419        -0.985221         1.751952
 H         4.239913         1.262429         0.623874
 H         4.267064        -1.286271        -0.861838
