19
Iteration:  3250charge 0 multiplicity 1
 C         0.133848         0.161285        -0.304516
 C         1.481237        -0.126550         0.346667
 C         1.297791        -1.023944         1.652611
 C         2.613568        -1.070046         2.530411
 C         3.743246        -0.901194         1.460972
 C         3.641305         0.411417         0.618753
 O         2.308402         0.974404         0.613630
 C         3.518865        -0.957115        -0.017536
 O         2.199497        -1.083682        -0.518386
 H        -0.401935         0.835864         0.301380
 H         0.235419         0.516138        -1.394208
 H        -0.372420        -0.780727        -0.327821
 H         0.407281        -0.912330         2.389077
 H         1.042620        -2.008221         1.266091
 H         2.796599        -0.304814         3.307936
 H         2.500177        -1.922030         3.149413
 H         4.803590        -1.211110         1.637491
 H         4.530865         0.999889         0.383051
 H         4.230702        -1.440396        -0.602121
