19
Iteration:  3465charge 0 multiplicity 1
 C         0.154456         0.150916        -0.257163
 C         1.429976        -0.292906         0.352812
 C         1.259046        -0.860344         1.717332
 C         2.603973        -1.137906         2.424851
 C         3.746050        -0.935976         1.446696
 C         3.649676         0.439090         0.639315
 O         2.263682         0.903689         0.580012
 C         3.625534        -0.885804        -0.016271
 O         2.194290        -1.078063        -0.544381
 H        -0.027714         1.091218         0.265024
 H         0.467242         0.204537        -1.384079
 H        -0.497772        -0.710983        -0.031028
 H         0.682613        -0.142986         2.266671
 H         0.681565        -1.787366         1.709479
 H         2.793561        -0.283708         3.150474
 H         2.418345        -2.053765         3.059767
 H         4.786381        -1.285242         1.652378
 H         4.385436         1.347170         0.739362
 H         4.412781        -1.373322        -0.612323
