19
Iteration:  2083charge 0 multiplicity 1
 C         0.077219         0.150143        -0.251566
 C         1.481676        -0.184910         0.391835
 C         1.271647        -1.037658         1.624102
 C         2.552961        -1.351308         2.306419
 C         3.791499        -0.823207         1.512883
 C         3.635592         0.438280         0.712099
 O         2.239300         1.016361         0.551062
 C         3.611107        -0.835522         0.015821
 O         2.277962        -1.011791        -0.467273
 H        -0.532311         0.684720         0.502212
 H         0.092018         0.618408        -1.218615
 H        -0.205105        -0.907267        -0.476355
 H         0.668960        -0.407854         2.268183
 H         0.561864        -1.951438         1.424115
 H         2.611834        -1.044300         3.394229
 H         2.742995        -2.383939         2.272194
 H         4.796957        -0.969350         1.873049
 H         4.506826         1.099191         0.619828
 H         4.477440        -1.128198        -0.655478
