19
Iteration:  3834
 C         0.294448         0.145680        -0.423068
 C         1.436858        -0.211879         0.452672
 C         1.289204        -0.722964         1.875047
 C         2.601383        -1.400192         2.305327
 C         3.767459        -0.766677         1.468154
 C         3.643990         0.372599         0.562829
 O         2.232144         1.003953         0.528300
 C         3.508446        -0.989247        -0.050305
 O         2.171456        -1.090564        -0.311480
 H        -0.293742         1.066348        -0.130434
 H         0.726474         0.268094        -1.420953
 H        -0.431290        -0.710746        -0.603179
 H         0.896310         0.061902         2.534913
 H         0.575130        -1.607620         1.902823
 H         2.726390        -1.160824         3.384862
 H         2.865023        -2.536651         2.115898
 H         4.699973        -0.947036         1.952240
 H         4.369352         1.191160         0.608244
 H         3.961074        -1.419324        -1.011598
