19
Iteration:  4452
 C         0.191694         0.273588        -0.392824
 C         1.402575        -0.111598         0.455163
 C         1.255506        -0.871031         1.841614
 C         2.599667        -1.322905         2.352138
 C         3.835305        -0.818125         1.480205
 C         3.655640         0.418857         0.507338
 O         2.286633         0.978435         0.395118
 C         3.555680        -0.987700         0.060275
 O         2.197486        -1.172622        -0.283573
 H        -0.522707         0.892071         0.117809
 H         0.447997         0.804763        -1.384888
 H        -0.439535        -0.554276        -0.694523
 H         0.552095        -0.436454         2.579409
 H         0.620240        -1.684656         1.500336
 H         2.694750        -1.007813         3.454456
 H         2.750975        -2.410421         2.331301
 H         4.650921        -1.129025         2.091409
 H         4.412562         1.133913         0.173271
 H         4.194127        -1.527536        -0.514229
