19
Iteration:  1472
 C         0.208856         0.357689        -0.308154
 C         1.370082        -0.335584         0.382109
 C         1.310814        -1.214542         1.618458
 C         2.635405        -1.209744         2.403876
 C         3.805838        -0.698817         1.471197
 C         3.531980         0.483055         0.604834
 O         2.258338         0.907674         0.720732
 C         3.552114        -0.877621        -0.002609
 O         2.254881        -1.069094        -0.494474
 H        -0.348155         0.955378         0.417470
 H         0.658116         0.862359        -1.123743
 H        -0.475979        -0.362629        -0.837674
 H         0.478209        -0.965639         2.334387
 H         1.155031        -2.132367         1.192161
 H         2.572609        -0.698227         3.455846
 H         2.693769        -2.349777         2.646911
 H         4.747435        -1.066147         1.807812
 H         4.181909         1.379046         0.414264
 H         4.201483        -1.148172        -0.874846
