19
Iteration:  4671charge 0 multiplicity 1
 C         0.153331         0.230192        -0.247375
 C         1.442762        -0.280644         0.306862
 C         1.171963        -0.736679         1.769179
 C         2.549388        -1.200849         2.369447
 C         3.762948        -0.860874         1.506516
 C         3.719635         0.416699         0.554940
 O         2.319967         0.874031         0.536982
 C         3.595099        -0.871857        -0.015343
 O         2.214856        -1.239663        -0.428149
 H        -0.105035         1.147510         0.368706
 H         0.218646         0.808716        -1.149507
 H        -0.635773        -0.560505        -0.320755
 H         0.621874         0.165667         2.143074
 H         0.652386        -1.729786         1.807576
 H         2.735694        -0.904789         3.376235
 H         2.536978        -2.252948         2.400534
 H         4.782812        -1.027994         1.875426
 H         4.490716         1.169547         0.604965
 H         4.461109        -1.382584        -0.697668
