19
Iteration:   112charge 0 multiplicity 1
 C         0.151286         0.206783        -0.286570
 C         1.449829        -0.347588         0.380285
 C         1.226864        -1.079877         1.656570
 C         2.561146        -1.319756         2.277769
 C         3.734316        -0.756987         1.461577
 C         3.588821         0.512193         0.677971
 O         2.240541         0.884201         0.831042
 C         3.657292        -0.684297        -0.141237
 O         2.312354        -1.075371        -0.512415
 H        -0.294661         1.072442         0.333152
 H         0.544159         0.650556        -1.227777
 H        -0.516273        -0.687739        -0.449217
 H         0.685019        -0.317333         2.289631
 H         0.649544        -1.987544         1.491445
 H         2.547703        -0.892485         3.252206
 H         2.694688        -2.431202         2.489409
 H         4.778422        -0.996041         1.667221
 H         4.267557         1.429360         0.631655
 H         4.421096        -1.204188        -0.803235
