19
Iteration:   248
 C         0.202708         0.052045        -0.345017
 C         1.446793        -0.182962         0.414746
 C         1.309036        -1.073128         1.665412
 C         2.624916        -1.342733         2.381908
 C         3.732405        -0.822164         1.457401
 C         3.576092         0.459382         0.774596
 O         2.273999         0.944892         0.796001
 C         3.562060        -0.756630        -0.155619
 O         2.216027        -0.915579        -0.613264
 H        -0.638475         0.521091         0.219080
 H         0.312557         0.705186        -1.274380
 H        -0.220615        -0.948293        -0.526723
 H         0.556941        -0.679185         2.347967
 H         0.775551        -1.981046         1.347260
 H         2.729122        -0.920011         3.422797
 H         2.770611        -2.419021         2.533438
 H         4.682720        -0.947424         1.848217
 H         4.373847         1.279554         0.677425
 H         4.426554        -1.131389        -0.754277
