19
Iteration:   444charge 0 multiplicity 1
 C         0.141745         0.185344        -0.280760
 C         1.380615        -0.278960         0.390267
 C         1.193630        -0.993311         1.766565
 C         2.672284        -1.528950         2.172892
 C         3.743621        -0.770087         1.507478
 C         3.517433         0.538184         0.803221
 O         2.160362         0.940413         0.631243
 C         3.662428        -0.674031        -0.025822
 O         2.446660        -1.092135        -0.570805
 H        -0.356743         0.857430         0.515640
 H         0.289018         0.820917        -1.158192
 H        -0.644964        -0.513340        -0.582182
 H         0.806409        -0.210297         2.426140
 H         0.431531        -1.789440         1.724709
 H         2.970859        -1.379768         3.265388
 H         2.681181        -2.691401         1.910309
 H         4.690935        -0.740029         1.813576
 H         4.254708         1.336058         0.854447
 H         4.483860        -1.057482        -0.660920
