19
Iteration:  2631charge 0 multiplicity 1
 C         0.199089         0.231109        -0.240422
 C         1.450249        -0.293962         0.322002
 C         1.193597        -1.005371         1.716219
 C         2.644562        -1.176224         2.416127
 C         3.761679        -0.906439         1.486097
 C         3.530206         0.429869         0.692053
 O         2.297650         0.906186         0.537482
 C         3.614929        -0.848588        -0.090009
 O         2.252805        -1.076978        -0.475856
 H        -0.435177         0.678613         0.659228
 H         0.503419         1.143268        -0.841715
 H        -0.515310        -0.576551        -0.697760
 H         0.351469        -0.444844         2.082783
 H         0.711036        -1.957007         1.529320
 H         2.760818        -0.563465         3.282589
 H         2.720202        -2.241946         2.902685
 H         4.766996        -0.647497         1.770106
 H         4.303806         1.137968         0.772619
 H         4.353708        -1.023639        -0.991170
