19
Iteration:  1420
 C         0.112482         0.089104        -0.287643
 C         1.431706        -0.183811         0.338690
 C         1.288595        -1.079857         1.660582
 C         2.623260        -1.176495         2.456913
 C         3.761264        -1.000694         1.431266
 C         3.622621         0.389838         0.798529
 O         2.250585         0.985308         0.660351
 C         3.601988        -0.776568        -0.074517
 O         2.253199        -0.935116        -0.601185
 H        -0.405578         0.731651         0.471582
 H         0.270935         0.360972        -1.318093
 H        -0.551191        -0.841587        -0.169067
 H         0.552025        -0.626799         2.371021
 H         0.873801        -2.071774         1.251621
 H         2.722413        -0.291141         3.086068
 H         2.648174        -2.146587         2.846145
 H         4.703284        -1.220624         1.805069
 H         4.421991         1.153927         0.711523
 H         4.458684        -1.038574        -0.807346
