19
Iteration:  2388
 C         0.225588         0.319499        -0.247275
 C         1.480361        -0.326922         0.339720
 C         1.220549        -1.049904         1.658054
 C         2.589467        -1.166045         2.466159
 C         3.778958        -0.786893         1.461808
 C         3.555479         0.506450         0.639003
 O         2.230860         0.878645         0.711382
 C         3.589970        -0.878625        -0.048248
 O         2.233785        -1.133879        -0.559432
 H        -0.143394         1.194638         0.300712
 H         0.493430         0.721884        -1.234405
 H        -0.548938        -0.407616        -0.601764
 H         0.407266        -0.669340         2.232652
 H         0.978643        -2.091665         1.453680
 H         2.661592        -0.657918         3.354213
 H         2.928821        -2.256457         2.609860
 H         4.873202        -1.043115         1.638248
 H         4.277694         1.210061         0.391723
 H         4.405875        -1.385477        -0.718581
