19
Iteration:  4848charge 0 multiplicity 1
 C         0.265151         0.189590        -0.346700
 C         1.465014        -0.280189         0.353561
 C         1.271858        -0.828968         1.806671
 C         2.593334        -1.135462         2.442381
 C         3.759431        -0.895055         1.427233
 C         3.651006         0.407357         0.636984
 O         2.275371         0.859379         0.617122
 C         3.523142        -0.924564        -0.067574
 O         2.146966        -1.108416        -0.500548
 H        -0.232141         0.944727         0.233194
 H         0.521004         0.595343        -1.350329
 H        -0.472461        -0.561230        -0.589947
 H         0.901275         0.072484         2.445252
 H         0.563606        -1.582923         1.892943
 H         2.782135        -0.373931         3.230524
 H         2.544870        -2.089938         2.923210
 H         4.745562        -1.348688         1.655272
 H         4.340843         1.259195         0.410962
 H         4.255747        -1.387346        -0.664618
