19
Iteration:  2550charge 0 multiplicity 1
 C         0.104939         0.191930        -0.273126
 C         1.476860        -0.285290         0.333203
 C         1.303381        -0.961142         1.702916
 C         2.623357        -1.171993         2.419065
 C         3.725534        -0.945400         1.425516
 C         3.556036         0.421233         0.712993
 O         2.240490         0.947461         0.651703
 C         3.673512        -0.889650        -0.058139
 O         2.260340        -1.022560        -0.555482
 H        -0.039900         1.021152         0.380547
 H         0.045607         0.394050        -1.346792
 H        -0.678195        -0.554242        -0.117843
 H         0.503854        -0.445888         2.220374
 H         1.035889        -1.970593         1.390518
 H         2.653455        -0.305017         3.181023
 H         2.582228        -2.128747         2.926037
 H         4.770453        -1.029188         1.859129
 H         4.314455         1.246310         0.765684
 H         4.294972        -1.399378        -0.866773
