19
Iteration:  3066
 C         0.170782         0.272849        -0.308531
 C         1.451169        -0.305777         0.399278
 C         1.224389        -1.117871         1.676998
 C         2.633577        -1.044723         2.444895
 C         3.794587        -0.855791         1.451250
 C         3.654680         0.412127         0.568105
 O         2.232753         0.947777         0.696325
 C         3.528849        -0.923485        -0.013368
 O         2.236720        -1.104211        -0.534410
 H        -0.116442         1.175800         0.249304
 H         0.517272         0.719435        -1.294859
 H        -0.603565        -0.437225        -0.635070
 H         0.470188        -0.782626         2.326108
 H         0.893013        -2.196222         1.477681
 H         2.495074        -0.183760         3.198973
 H         2.759160        -1.941552         3.067352
 H         4.786790        -1.048842         1.939185
 H         4.374980         1.083484         0.200230
 H         4.470664        -1.194144        -0.657876
