19
Iteration:  3551charge 0 multiplicity 1
 C         0.140818         0.214909        -0.249620
 C         1.472719        -0.213296         0.309372
 C         1.267331        -0.910588         1.683289
 C         2.581618        -1.057960         2.464485
 C         3.771949        -0.805274         1.514636
 C         3.641981         0.315732         0.620475
 O         2.260941         0.834713         0.626625
 C         3.533363        -0.901736        -0.121931
 O         2.266231        -1.117659        -0.485152
 H        -0.615684         0.631943         0.394144
 H         0.215786         0.937919        -1.163302
 H        -0.351269        -0.688197        -0.652468
 H         0.666939        -0.215665         2.234548
 H         0.629178        -1.906122         1.738389
 H         2.770741        -0.461386         3.348455
 H         2.710812        -2.076883         2.838681
 H         4.805234        -1.196070         1.551343
 H         4.463117         1.126418         0.472518
 H         4.411379        -1.385782        -0.591545
