19
Iteration:  4802charge 0 multiplicity 1
 C         0.221248         0.228546        -0.296600
 C         1.454297        -0.204584         0.423220
 C         1.242053        -0.891761         1.695767
 C         2.648044        -1.242074         2.423942
 C         3.781464        -0.890122         1.483670
 C         3.647168         0.435522         0.595715
 O         2.353056         0.980151         0.409142
 C         3.469365        -0.923167         0.025111
 O         2.160506        -1.140444        -0.333106
 H        -0.615076         0.698517         0.277212
 H         0.471940         0.833266        -1.111368
 H        -0.307397        -0.571589        -0.872736
 H         0.568715        -0.166882         2.247784
 H         0.580789        -1.739012         1.382022
 H         2.662953        -0.693554         3.364476
 H         2.769013        -2.395236         2.663654
 H         4.741856        -1.253339         1.816738
 H         4.464616         1.169470         0.581764
 H         3.943055        -1.520121        -0.690598
