19
Iteration:  3380charge 0 multiplicity 1
 C         0.128908         0.087438        -0.352474
 C         1.388256        -0.202466         0.413094
 C         1.295479        -0.661121         1.835862
 C         2.577747        -1.396440         2.322998
 C         3.761578        -0.857351         1.451120
 C         3.603820         0.465717         0.656158
 O         2.244896         0.912601         0.492627
 C         3.612505        -0.857778        -0.059084
 O         2.322904        -1.187584        -0.366144
 H        -0.564424         0.621631         0.255987
 H         0.291996         0.920315        -1.115809
 H        -0.420519        -0.670485        -0.864588
 H         1.256351         0.404211         2.327436
 H         0.438684        -1.210265         2.153917
 H         2.693467        -1.129926         3.367516
 H         2.348928        -2.476283         2.117424
 H         4.755156        -1.023721         1.907343
 H         4.461145         1.245263         0.493053
 H         4.294930        -1.280844        -0.793267
