19
Iteration:  1058
 C         0.095349         0.045163        -0.308223
 C         1.471750        -0.204100         0.396767
 C         1.259857        -1.009128         1.721015
 C         2.594945        -1.389066         2.267560
 C         3.732856        -0.882420         1.431587
 C         3.609207         0.484639         0.764052
 O         2.244965         1.016492         0.677045
 C         3.648254        -0.716297        -0.069673
 O         2.331701        -0.988795        -0.474432
 H        -0.585376         0.721825         0.193451
 H         0.096113         0.584054        -1.278529
 H        -0.382456        -0.911594        -0.504308
 H         0.516377        -0.588628         2.291813
 H         0.721549        -1.846445         1.421757
 H         2.665138        -1.001449         3.320821
 H         2.525730        -2.512880         2.433264
 H         4.717777        -1.262037         1.667953
 H         4.274179         1.324498         0.663744
 H         4.342497        -0.942449        -0.799719
