19
Iteration:  1106charge 0 multiplicity 1
 C         0.232356         0.197781        -0.477773
 C         1.381632        -0.333710         0.341456
 C         1.292965        -0.930521         1.853826
 C         2.722434        -1.497087         2.224995
 C         3.801762        -0.726642         1.513292
 C         3.525928         0.562204         0.632028
 O         2.176051         0.935582         0.749365
 C         3.577206        -0.771212         0.038650
 O         2.240065        -1.087262        -0.494170
 H        -0.338008         0.815996         0.215658
 H         0.447360         0.969692        -1.198527
 H        -0.454181        -0.478013        -1.002210
 H         0.878593        -0.210180         2.591918
 H         0.441498        -1.704950         1.910616
 H         2.700796        -1.749994         3.324798
 H         2.986460        -2.567697         1.736179
 H         4.852330        -0.909687         1.879895
 H         4.136574         1.484601         0.669857
 H         4.334030        -1.287356        -0.639680
