19
Iteration:  3722charge 0 multiplicity 1
 C         0.225544         0.286793        -0.273263
 C         1.460327        -0.252213         0.388584
 C         1.256750        -1.018776         1.691892
 C         2.612635        -0.937811         2.433037
 C         3.769289        -0.920201         1.468220
 C         3.615868         0.365741         0.570188
 O         2.243769         0.879391         0.738200
 C         3.509726        -0.974056        -0.104634
 O         2.226822        -1.150889        -0.539443
 H        -0.299833         0.844255         0.441050
 H         0.671998         0.882528        -1.094270
 H        -0.301498        -0.505453        -0.752747
 H         0.526880        -0.368868         2.229608
 H         0.846041        -1.929715         1.475836
 H         2.421653        -0.057502         3.089089
 H         2.897383        -1.823598         3.058527
 H         4.809699        -1.262417         1.718857
 H         4.204340         1.311268         0.298571
 H         4.346759        -1.406056        -0.646796
