19
Iteration:  4476
 C         0.279000         0.241688        -0.354516
 C         1.457202        -0.258443         0.368767
 C         1.273299        -0.859318         1.786951
 C         2.647061        -1.239182         2.464423
 C         3.791109        -0.753738         1.470444
 C         3.583114         0.395517         0.619016
 O         2.331994         0.961738         0.523948
 C         3.462183        -1.003552        -0.041831
 O         2.124404        -1.197196        -0.446922
 H        -0.231441         1.034826         0.149405
 H         0.597552         0.651769        -1.347161
 H        -0.493165        -0.466473        -0.607531
 H         0.656552         0.026373         2.284854
 H         0.537254        -1.601407         1.743869
 H         2.755449        -0.759628         3.500767
 H         2.796200        -2.294039         2.586264
 H         4.737024        -0.911485         2.004719
 H         4.363874         1.177293         0.570143
 H         4.119069        -1.429041        -0.794376
