19
Iteration:  4783
 C         0.178562         0.275213        -0.303370
 C         1.462833        -0.153082         0.391339
 C         1.294924        -0.821386         1.848004
 C         2.585529        -1.282763         2.429155
 C         3.696567        -0.841515         1.507535
 C         3.557704         0.369058         0.627670
 O         2.310298         0.958456         0.412537
 C         3.614347        -1.040787        -0.034219
 O         2.232747        -1.162034        -0.493417
 H        -0.334179         0.689456         0.559279
 H         0.300027         1.069620        -1.080599
 H        -0.275769        -0.645528        -0.676391
 H         0.604829        -0.205865         2.564578
 H         0.731575        -1.680766         1.741825
 H         2.722783        -0.729311         3.368321
 H         2.622452        -2.268245         2.595244
 H         4.673941        -0.913120         2.039952
 H         4.329461         1.136074         0.401095
 H         4.309303        -1.312887        -0.737367
