19
Iteration:   392charge 0 multiplicity 1
 C         0.131265        -0.001580        -0.427759
 C         1.418223        -0.164240         0.386907
 C         1.330604        -0.939354         1.865215
 C         2.642143        -1.616483         2.214069
 C         3.692750        -0.753881         1.512838
 C         3.575815         0.532773         0.784402
 O         2.232423         1.034949         0.696513
 C         3.657863        -0.806435        -0.019053
 O         2.268107        -0.917400        -0.549799
 H        -0.786549         0.194204         0.155969
 H         0.048743         0.639809        -1.257927
 H        -0.127786        -1.003003        -0.748895
 H         1.121701        -0.167140         2.556302
 H         0.599938        -1.709472         1.866872
 H         2.786449        -1.746182         3.212238
 H         2.574828        -2.459108         1.566624
 H         4.782072        -0.879990         1.619472
 H         4.298690         1.301119         0.756388
 H         4.367701        -1.102214        -0.782388
