19
Iteration:  1903
 C         0.162207         0.131293        -0.302554
 C         1.403706        -0.236426         0.358432
 C         1.303157        -1.151302         1.545967
 C         2.567287        -1.108236         2.434594
 C         3.812857        -0.867905         1.462197
 C         3.646976         0.423497         0.724845
 O         2.256227         0.902597         0.802070
 C         3.539328        -0.884568        -0.063685
 O         2.244716        -0.933222        -0.567117
 H        -0.427062         0.860400         0.234290
 H         0.425010         0.695031        -1.122275
 H        -0.476747        -0.720690        -0.572115
 H         0.427370        -0.708790         2.163505
 H         1.197069        -2.177513         1.114169
 H         2.522732        -0.240881         3.064631
 H         2.663431        -1.943704         3.179947
 H         4.826317        -1.133123         1.631825
 H         4.422512         1.205696         0.625980
 H         4.235236        -1.078373        -0.907237
