19
Iteration:  4472charge 0 multiplicity 1
 C         0.274536         0.251142        -0.351190
 C         1.448037        -0.232008         0.379680
 C         1.262499        -0.870771         1.790138
 C         2.675488        -1.240512         2.430328
 C         3.750774        -0.725428         1.508131
 C         3.576614         0.387240         0.613883
 O         2.353712         0.949016         0.493655
 C         3.468717        -1.025613        -0.031494
 O         2.126320        -1.178544        -0.409133
 H        -0.305021         1.064521         0.114106
 H         0.689786         0.639905        -1.331984
 H        -0.459684        -0.507001        -0.670846
 H         0.711717        -0.164288         2.273490
 H         0.497890        -1.694115         1.715368
 H         2.824622        -0.822201         3.443294
 H         2.696890        -2.368558         2.514156
 H         4.822593        -0.822788         1.803896
 H         4.317398         1.176649         0.578754
 H         4.099632        -1.419213        -0.780750
