19
Iteration:    56charge 0 multiplicity 1
 C         0.202332         0.175800        -0.273727
 C         1.465472        -0.216516         0.358802
 C         1.278082        -1.279415         1.684090
 C         2.618467        -1.206985         2.527897
 C         3.733220        -0.845781         1.456415
 C         3.624117         0.455289         0.740268
 O         2.272824         0.952925         0.716423
 C         3.520881        -0.828353        -0.087557
 O         2.226364        -0.876378        -0.677785
 H        -0.557687         0.598812         0.393562
 H         0.284179         0.844207        -1.076500
 H        -0.319729        -0.619044        -0.710631
 H         0.348248        -1.097967         2.250330
 H         1.219357        -2.292406         1.288077
 H         2.593075        -0.522274         3.360731
 H         2.845415        -2.229920         2.855299
 H         4.717835        -1.143918         1.559281
 H         4.347194         1.243325         0.461402
 H         4.281806        -1.100558        -0.788682
