19
Iteration:   331charge 0 multiplicity 1
 C         0.100841         0.276995        -0.293858
 C         1.400114        -0.245151         0.424641
 C         1.304311        -1.309948         1.538050
 C         2.638523        -1.304498         2.358342
 C         3.812118        -0.685650         1.504017
 C         3.568370         0.483540         0.659006
 O         2.218803         0.900307         0.735676
 C         3.586220        -0.837382        -0.007637
 O         2.282598        -0.919572        -0.544606
 H        -0.341346         0.982761         0.395941
 H         0.544807         0.760838        -1.214407
 H        -0.496252        -0.648762        -0.527940
 H         0.455430        -0.981966         2.246003
 H         0.979133        -2.320740         1.138886
 H         2.516251        -0.840648         3.445303
 H         2.891362        -2.392191         2.638727
 H         4.854855        -1.021227         1.854376
 H         4.295678         1.219909         0.492905
 H         4.406848        -1.032880        -0.631774
