19
Iteration:  1818charge 0 multiplicity 1
 C         0.116203         0.180654        -0.312642
 C         1.370232        -0.309360         0.370377
 C         1.328415        -0.895252         1.794601
 C         2.596073        -1.629787         2.101630
 C         3.707502        -0.686528         1.557760
 C         3.524445         0.532608         0.614300
 O         2.266072         1.056147         0.564015
 C         3.711376        -0.775924         0.080828
 O         2.297967        -1.128078        -0.394642
 H        -0.500038         0.706338         0.433175
 H         0.480383         0.744801        -1.188612
 H        -0.434108        -0.739605        -0.657374
 H         1.169035        -0.123696         2.483685
 H         0.397830        -1.518388         2.009551
 H         2.694995        -1.708064         3.221561
 H         2.581461        -2.584468         1.560030
 H         4.620716        -0.596677         2.084399
 H         4.329110         1.277810         0.562854
 H         4.443395        -1.355789        -0.616328
