19
Iteration:  1876charge 0 multiplicity 1
 C         0.173965         0.097400        -0.365012
 C         1.392661        -0.230238         0.360159
 C         1.246176        -1.054397         1.774245
 C         2.607877        -1.248205         2.435395
 C         3.769776        -0.874234         1.428053
 C         3.654782         0.450724         0.720540
 O         2.194037         0.948601         0.777865
 C         3.585149        -0.847963        -0.076174
 O         2.309194        -0.934360        -0.671948
 H        -0.550725         0.765479         0.147824
 H         0.323279         0.653419        -1.396173
 H        -0.301471        -0.879635        -0.553636
 H         0.768694        -0.302819         2.347507
 H         0.705131        -1.998616         1.665855
 H         2.685610        -0.635431         3.393349
 H         2.707959        -2.242302         2.834844
 H         4.827378        -1.259569         1.575883
 H         4.376959         1.294751         0.817517
 H         4.297893        -1.191321        -0.771071
