19
Iteration:  1540
 C         0.089503        -0.038801        -0.333602
 C         1.467576        -0.174875         0.361855
 C         1.248542        -0.873770         1.800671
 C         2.588708        -1.435099         2.252411
 C         3.739309        -0.812867         1.455457
 C         3.596909         0.496379         0.757501
 O         2.309369         0.995863         0.678051
 C         3.612653        -0.893631        -0.004524
 O         2.257395        -0.920697        -0.577631
 H        -0.602052         0.410357         0.425395
 H         0.282776         0.367107        -1.360789
 H        -0.266496        -1.049967        -0.571830
 H         1.047626         0.038459         2.391341
 H         0.478605        -1.594432         1.932267
 H         2.602331        -1.207069         3.420698
 H         2.667800        -2.591453         2.044956
 H         4.772279        -0.963776         1.692313
 H         4.351010         1.241177         0.726611
 H         4.537252        -1.106679        -0.701511
