19
Iteration:  2119charge 0 multiplicity 1
 C         0.240277         0.177178        -0.421850
 C         1.454230        -0.275346         0.375639
 C         1.291131        -1.142457         1.710849
 C         2.666810        -1.095396         2.438923
 C         3.752811        -0.962552         1.406308
 C         3.577492         0.407592         0.725159
 O         2.209638         0.908201         0.844750
 C         3.521306        -0.806270        -0.111820
 O         2.242762        -0.943781        -0.599705
 H        -0.522593         0.852130         0.081277
 H         0.564851         0.664701        -1.376688
 H        -0.561373        -0.681808        -0.535460
 H         0.553475        -0.456373         2.170385
 H         0.954059        -2.161293         1.621743
 H         2.630122        -0.179712         3.134410
 H         2.775524        -1.965710         3.083001
 H         4.747743        -1.233122         1.719961
 H         4.404543         1.155742         0.616990
 H         4.223334        -1.114894        -0.827116
