19
Iteration:  4930charge 0 multiplicity 1
 C         0.181416         0.249706        -0.287611
 C         1.436168        -0.214167         0.370456
 C         1.279975        -0.826866         1.744236
 C         2.649730        -1.170919         2.459342
 C         3.745877        -0.921418         1.459496
 C         3.551651         0.351622         0.624012
 O         2.257436         0.864313         0.500319
 C         3.562160        -0.946894        -0.029298
 O         2.267312        -1.104794        -0.466500
 H        -0.209367         1.207960         0.208975
 H         0.511668         0.609654        -1.252499
 H        -0.580986        -0.589595        -0.292218
 H         0.784126        -0.100484         2.325899
 H         0.490554        -1.721301         1.797446
 H         2.922888        -0.512937         3.237639
 H         2.566945        -2.182743         2.883376
 H         4.742772        -1.069506         1.806519
 H         4.297270         1.157812         0.486711
 H         4.252247        -1.268185        -0.751344
