19
Iteration:  4683charge 0 multiplicity 1
 C         0.135708         0.313899        -0.316565
 C         1.483335        -0.238542         0.364022
 C         1.225169        -0.766517         1.767790
 C         2.585137        -1.261258         2.356160
 C         3.800786        -0.767004         1.483467
 C         3.642850         0.445813         0.586263
 O         2.278683         0.920766         0.593716
 C         3.581611        -1.030150        -0.018926
 O         2.253809        -1.285130        -0.446458
 H        -0.286381         1.164702         0.292817
 H         0.415178         0.477327        -1.319035
 H        -0.732911        -0.408114        -0.346967
 H         0.758693         0.101029         2.380414
 H         0.400903        -1.481237         1.753762
 H         2.645540        -0.914012         3.387692
 H         2.571544        -2.293590         2.365687
 H         4.771598        -0.944432         1.968719
 H         4.289318         1.286197         0.379247
 H         4.254269        -1.578197        -0.801334
