19
Iteration:   811
 C         0.171746         0.108628        -0.264190
 C         1.455266        -0.235533         0.354921
 C         1.234214        -1.199927         1.607773
 C         2.586456        -1.362816         2.287219
 C         3.780764        -0.696448         1.567934
 C         3.589257         0.431601         0.704729
 O         2.261250         1.013118         0.757532
 C         3.586250        -0.768264        -0.074956
 O         2.286602        -0.952282        -0.571097
 H        -0.448853         0.777092         0.381134
 H         0.180563         0.582677        -1.278893
 H        -0.499888        -0.759200        -0.360423
 H         0.570262        -0.576887         2.208892
 H         0.866214        -2.152845         1.302316
 H         2.520156        -1.017023         3.315710
 H         2.936250        -2.413978         2.321989
 H         4.706135        -0.918464         1.977498
 H         4.266987         1.347549         0.778542
 H         4.349577        -1.215776        -0.745526
