19
Iteration:    55
 C         0.205663         0.170277        -0.262752
 C         1.464033        -0.218781         0.358508
 C         1.272260        -1.268733         1.680052
 C         2.617214        -1.209123         2.525540
 C         3.736819        -0.839222         1.449353
 C         3.616823         0.447652         0.747752
 O         2.270977         0.955798         0.720135
 C         3.520093        -0.831734        -0.092410
 O         2.232689        -0.869180        -0.676709
 H        -0.521684         0.559928         0.408935
 H         0.259605         0.796148        -1.096397
 H        -0.267966        -0.623600        -0.718406
 H         0.346404        -1.064848         2.232526
 H         1.219448        -2.293684         1.282428
 H         2.591540        -0.485142         3.349843
 H         2.838185        -2.211971         2.828833
 H         4.731811        -1.190303         1.561289
 H         4.329941         1.206231         0.448101
 H         4.276495        -1.128247        -0.778540
