19
Iteration:  1550charge 0 multiplicity 1
 C         0.123133        -0.011135        -0.336195
 C         1.467710        -0.237393         0.398189
 C         1.299344        -0.855121         1.775474
 C         2.628263        -1.471645         2.262372
 C         3.745093        -0.842702         1.494864
 C         3.594897         0.451695         0.750672
 O         2.241719         1.049326         0.603755
 C         3.596124        -0.795494        -0.016327
 O         2.262860        -0.970696        -0.503004
 H        -0.630970         0.639436         0.158731
 H         0.291981         0.603132        -1.224100
 H        -0.308715        -0.990510        -0.585791
 H         0.989347         0.058947         2.374690
 H         0.457623        -1.451227         1.696410
 H         2.828085        -1.568534         3.394492
 H         2.535529        -2.596722         1.964284
 H         4.654429        -1.000556         1.979139
 H         4.379374         1.170578         0.657224
 H         4.334510        -1.028673        -0.888950
