19
Iteration:  1725charge 0 multiplicity 1
 C         0.176803         0.287512        -0.287283
 C         1.427440        -0.269157         0.347079
 C         1.245307        -1.165920         1.632198
 C         2.670652        -1.224004         2.423129
 C         3.803166        -0.835145         1.462935
 C         3.544870         0.453595         0.742849
 O         2.215916         0.928606         0.660888
 C         3.603981        -0.820940        -0.101693
 O         2.284507        -1.052223        -0.493714
 H        -0.356388         0.841410         0.472806
 H         0.354282         0.951854        -1.196063
 H        -0.582293        -0.392489        -0.610643
 H         0.243693        -0.802507         2.209651
 H         0.966428        -2.147904         1.250103
 H         2.498144        -0.453413         3.172974
 H         2.683719        -2.233805         2.922442
 H         4.904508        -0.945252         1.695694
 H         4.344889         1.205660         0.571148
 H         4.329825        -1.214422        -0.707560
