19
Iteration:  4917
 C         0.132317         0.276621        -0.289292
 C         1.465235        -0.275296         0.373627
 C         1.185036        -0.878313         1.823688
 C         2.580545        -1.195512         2.484087
 C         3.761198        -0.836477         1.494205
 C         3.673797         0.431302         0.566662
 O         2.346463         0.939519         0.524298
 C         3.617010        -0.959887        -0.093013
 O         2.194266        -1.176037        -0.516266
 H        -0.268193         1.104748         0.368000
 H         0.213086         0.473622        -1.376553
 H        -0.717703        -0.482393        -0.200703
 H         0.549875        -0.109775         2.357476
 H         0.661429        -1.857800         1.567825
 H         2.570657        -0.644198         3.417369
 H         2.761922        -2.179126         2.757494
 H         4.781840        -0.923044         1.856282
 H         4.458659         1.140848         0.630623
 H         4.415601        -1.548146        -0.748305
