19
Iteration:  2886
 C         0.194846         0.142752        -0.264380
 C         1.467457        -0.268309         0.398366
 C         1.273722        -0.889234         1.771484
 C         2.578155        -1.299438         2.396185
 C         3.820527        -0.776732         1.470987
 C         3.568592         0.407052         0.698413
 O         2.244917         0.937793         0.549649
 C         3.539520        -0.879254        -0.043774
 O         2.240552        -1.071468        -0.559147
 H        -0.220498         1.093433         0.059617
 H         0.479965         0.501675        -1.347759
 H        -0.578855        -0.604830        -0.400231
 H         0.718836        -0.106956         2.318458
 H         0.682254        -1.720065         1.661110
 H         2.629482        -0.952413         3.471222
 H         2.634283        -2.398789         2.519891
 H         4.814825        -0.934616         1.980241
 H         4.400875         1.052578         0.617262
 H         4.413328        -1.091082        -0.774194
