19
Iteration:   144charge 0 multiplicity 1
 C         0.149513         0.019092        -0.370230
 C         1.444861        -0.113220         0.341921
 C         1.389430        -0.908599         1.755862
 C         2.672669        -1.541711         2.272971
 C         3.811473        -0.939332         1.529569
 C         3.469972         0.439918         0.866014
 O         2.203149         1.085246         0.606022
 C         3.536115        -0.751546         0.008503
 O         2.232732        -0.930015        -0.576038
 H        -0.559013         0.708304         0.116395
 H         0.465155         0.103479        -1.362139
 H        -0.174849        -0.999252        -0.410751
 H         0.928226        -0.295714         2.572995
 H         0.721940        -1.762206         1.570982
 H         2.777892        -1.276208         3.300003
 H         2.574442        -2.649130         2.161664
 H         4.882822        -1.125980         1.707900
 H         4.315026         1.185660         0.749361
 H         4.458016        -0.868580        -0.657368
