19
Iteration:  3437
 C         0.133821         0.130047        -0.364068
 C         1.403754        -0.130307         0.385753
 C         1.241069        -0.847061         1.778280
 C         2.649083        -1.332351         2.370196
 C         3.780069        -0.775637         1.531746
 C         3.628912         0.400305         0.571960
 O         2.326830         0.996327         0.521420
 C         3.616017        -0.922946        -0.002963
 O         2.174824        -1.152826        -0.436712
 H        -0.443512         0.925158         0.192927
 H         0.366550         0.307038        -1.372503
 H        -0.466622        -0.778833        -0.181193
 H         0.741593        -0.072656         2.477102
 H         0.562361        -1.733558         1.733329
 H         2.711146        -1.029751         3.413643
 H         2.533773        -2.391641         2.500137
 H         4.793645        -0.828448         1.909582
 H         4.452007         1.083067         0.592288
 H         4.348606        -1.294526        -0.791676
