19
Iteration:  2034
 C         0.156942         0.144881        -0.413459
 C         1.448529        -0.257761         0.416455
 C         1.297376        -0.805172         1.848820
 C         2.588856        -1.589397         2.120773
 C         3.797011        -0.747083         1.557264
 C         3.503014         0.522491         0.706098
 O         2.200844         0.926939         0.579145
 C         3.603925        -0.801452         0.046877
 O         2.310664        -1.073754        -0.445176
 H        -0.408792         0.675976         0.349967
 H         0.453229         0.770912        -1.256407
 H        -0.454015        -0.680749        -0.848804
 H         1.122633         0.140974         2.498166
 H         0.413045        -1.362299         2.096869
 H         2.798701        -1.576792         3.166254
 H         2.767881        -2.665995         1.724199
 H         4.800720        -0.912311         2.014416
 H         4.316130         1.296758         0.489860
 H         4.313680        -0.992490        -0.684889
