19
Iteration:  1870
 C         0.147901         0.088612        -0.355608
 C         1.433186        -0.209663         0.368222
 C         1.254542        -1.037968         1.763031
 C         2.621971        -1.329178         2.430310
 C         3.774860        -0.849641         1.399245
 C         3.653346         0.440602         0.744139
 O         2.188391         0.990225         0.734309
 C         3.573897        -0.826398        -0.076458
 O         2.316496        -0.977649        -0.614010
 H        -0.450207         0.740636         0.279024
 H         0.491178         0.490549        -1.236776
 H        -0.373364        -0.808609        -0.737707
 H         0.580406        -0.240384         2.329804
 H         0.412301        -1.775971         1.614771
 H         2.784199        -0.632263         3.218673
 H         2.648138        -2.399111         2.807026
 H         4.760092        -1.143274         1.622830
 H         4.234945         1.316974         0.842688
 H         4.377401        -1.118911        -0.855200
