19
Iteration:  1433
 C         0.110609         0.168410        -0.272784
 C         1.469488        -0.279246         0.390256
 C         1.285575        -1.058493         1.676215
 C         2.614360        -1.145742         2.358966
 C         3.733228        -0.939773         1.427671
 C         3.567795         0.467587         0.754534
 O         2.254295         0.890443         0.710214
 C         3.568210        -0.824524        -0.099742
 O         2.306030        -0.979913        -0.560407
 H        -0.308973         1.098091         0.217621
 H         0.239065         0.747664        -1.235004
 H        -0.585360        -0.668241        -0.445672
 H         0.351739        -0.876206         2.188564
 H         1.215992        -2.220835         1.317108
 H         2.730943        -0.378991         3.092107
 H         2.750082        -1.939928         3.025821
 H         4.771198        -1.171987         1.713305
 H         4.317212         1.252559         0.838774
 H         4.419198        -1.125534        -0.845873
