19
Iteration:  2956charge 0 multiplicity 1
 C         0.178773         0.141881        -0.312073
 C         1.428748        -0.294332         0.393193
 C         1.305099        -0.752932         1.883180
 C         2.570902        -1.498136         2.248441
 C         3.676752        -0.786327         1.484907
 C         3.558188         0.513740         0.669343
 O         2.227808         0.955847         0.438980
 C         3.684211        -0.877207        -0.024417
 O         2.301772        -1.089304        -0.391040
 H        -0.393418         0.946695         0.166921
 H         0.419893         0.536727        -1.227107
 H        -0.495122        -0.722366        -0.477403
 H         1.368970         0.070694         2.555353
 H         0.313006        -1.350496         2.023969
 H         2.742392        -1.519182         3.353349
 H         2.467825        -2.514625         1.982767
 H         4.690667        -0.792326         1.829750
 H         4.250110         1.403088         0.646656
 H         4.388351        -1.340095        -0.651003
