19
Iteration:  4721
 C         0.220113         0.170304        -0.406153
 C         1.369905        -0.092474         0.491373
 C         1.265288        -0.804383         1.848912
 C         2.576069        -1.359085         2.485402
 C         3.779890        -0.859661         1.429675
 C         3.627988         0.484131         0.647786
 O         2.359235         1.006798         0.458396
 C         3.566463        -0.977760        -0.113611
 O         2.151824        -1.180914        -0.389006
 H        -0.382657         1.060593        -0.284692
 H         0.637392         0.407063        -1.459220
 H        -0.485518        -0.646761        -0.385554
 H         0.831166        -0.089357         2.509460
 H         0.589152        -1.700286         1.563855
 H         2.710121        -1.033733         3.592115
 H         2.624556        -2.580234         2.527250
 H         4.824142        -1.175911         1.593428
 H         4.390472         1.285710         0.505647
 H         4.271616        -1.526600        -0.785822
