19
Iteration:   321
 C         0.243249         0.279508        -0.220213
 C         1.459012        -0.302995         0.356614
 C         1.333559        -1.357369         1.573687
 C         2.607456        -1.301371         2.359364
 C         3.773646        -0.745561         1.563396
 C         3.599011         0.554983         0.623019
 O         2.170868         0.916425         0.715563
 C         3.529188        -0.845380         0.046409
 O         2.239374        -0.879571        -0.564207
 H        -0.276301         1.046181         0.319882
 H         0.349460         0.765106        -1.247174
 H        -0.625148        -0.396537        -0.458290
 H         0.355278        -1.261539         2.151054
 H         1.391578        -2.297167         0.973219
 H         2.500991        -0.582611         3.233432
 H         3.001547        -2.341110         2.623156
 H         4.805332        -0.991648         1.893844
 H         4.222918         1.299591         0.183288
 H         4.223934        -1.260934        -0.630537
