19
Iteration:  2325charge 0 multiplicity 1
 C         0.147283         0.128168        -0.227479
 C         1.511525        -0.187364         0.326894
 C         1.334493        -1.067728         1.633858
 C         2.596846        -1.184573         2.422010
 C         3.711272        -0.819669         1.486676
 C         3.602209         0.375387         0.728360
 O         2.304124         0.962761         0.649198
 C         3.536296        -0.894083        -0.045139
 O         2.212922        -0.973887        -0.584463
 H        -0.501868         0.886783         0.241686
 H         0.420716         0.571581        -1.253946
 H        -0.321781        -0.885778        -0.306150
 H         0.533182        -0.441130         2.173145
 H         0.760121        -2.048848         1.304721
 H         2.502078        -0.487396         3.399550
 H         2.638919        -2.242690         2.837230
 H         4.764353        -1.130269         1.748571
 H         4.349547         1.092080         0.646045
 H         4.362496        -1.387540        -0.646943
