19
Iteration:  1996
 C         0.252928        -0.027246        -0.417439
 C         1.446840        -0.135575         0.462310
 C         1.193722        -0.873917         1.793082
 C         2.612318        -1.462116         2.200059
 C         3.791293        -0.886577         1.391714
 C         3.614396         0.459087         0.769495
 O         2.243378         1.012941         0.660593
 C         3.566377        -0.743596        -0.047550
 O         2.214498        -1.004239        -0.415528
 H        -0.545813         0.679829        -0.024208
 H         0.456142         0.399032        -1.444473
 H        -0.132656        -1.092181        -0.436226
 H         0.873430        -0.298076         2.606352
 H         0.532250        -1.678659         1.356235
 H         2.773513        -0.955834         3.234576
 H         2.500866        -2.497250         2.410808
 H         4.787254        -1.005858         1.859664
 H         4.357578         1.168470         0.673865
 H         4.392204        -0.868163        -0.887562
