19
Iteration:  4795
 C         0.235778         0.226993        -0.247433
 C         1.474303        -0.190452         0.397774
 C         1.221260        -0.878021         1.720105
 C         2.624638        -1.258591         2.452387
 C         3.771532        -0.887183         1.479677
 C         3.587368         0.376280         0.608951
 O         2.306259         0.992390         0.364687
 C         3.523706        -0.968168         0.012894
 O         2.174306        -1.118815        -0.369863
 H        -0.553157         0.697200         0.317316
 H         0.664376         0.937244        -1.036092
 H        -0.305367        -0.523427        -0.817809
 H         0.649634        -0.158415         2.408598
 H         0.651133        -1.704450         1.418183
 H         2.794129        -0.797926         3.447265
 H         2.593837        -2.250960         2.662778
 H         4.873950        -0.922244         1.671587
 H         4.465036         1.046870         0.643897
 H         4.269229        -1.409646        -0.643855
