19
Iteration:   606
 C         0.156981        -0.015984        -0.417354
 C         1.455944        -0.288064         0.398664
 C         1.271243        -0.967909         1.794332
 C         2.633800        -1.405957         2.198026
 C         3.797816        -0.817430         1.491877
 C         3.586334         0.507461         0.781834
 O         2.164006         0.924015         0.798684
 C         3.602493        -0.723429        -0.014942
 O         2.289847        -0.886185        -0.613323
 H        -0.550240         0.569981         0.195270
 H         0.450065         0.551940        -1.283331
 H        -0.278984        -0.856353        -0.924551
 H         0.912766        -0.052075         2.430757
 H         0.366936        -1.710192         2.066739
 H         2.760067        -1.360651         3.267616
 H         2.655362        -2.401863         1.871270
 H         4.741141        -1.073370         1.744380
 H         4.392243         1.245043         0.770198
 H         4.290677        -1.030525        -0.804032
