19
Iteration:  2680charge 0 multiplicity 1
 C         0.161087         0.004802        -0.447417
 C         1.408749        -0.133816         0.359564
 C         1.284471        -0.803093         1.872168
 C         2.615575        -1.407811         2.230528
 C         3.770554        -0.806714         1.505399
 C         3.602348         0.426468         0.726606
 O         2.263321         1.031864         0.599390
 C         3.593907        -0.903108        -0.084974
 O         2.236448        -1.045284        -0.362970
 H        -0.398805         0.558243         0.216970
 H         0.360815         0.581193        -1.345010
 H        -0.326481        -0.892856        -0.565536
 H         0.830022        -0.014364         2.528253
 H         0.462793        -1.569706         1.849155
 H         2.864568        -1.365929         3.331488
 H         2.598914        -2.405724         2.021094
 H         4.761527        -1.186859         1.725810
 H         4.469314         1.099467         0.475148
 H         4.197866        -1.157117        -0.872707
