19
Iteration:   165charge 0 multiplicity 1
 C         0.085426         0.000409        -0.346727
 C         1.473412        -0.193560         0.386579
 C         1.272480        -0.875363         1.756563
 C         2.617635        -1.630600         2.173150
 C         3.684271        -0.855509         1.490662
 C         3.580241         0.564240         0.778403
 O         2.246626         1.052957         0.595765
 C         3.649996        -0.751173        -0.029073
 O         2.311359        -0.976389        -0.431230
 H        -0.463318         0.559891         0.393589
 H         0.221337         0.361386        -1.290681
 H        -0.257900        -0.967348        -0.473688
 H         1.141666        -0.039225         2.457163
 H         0.398246        -1.524599         1.692070
 H         2.747040        -1.536068         3.248231
 H         2.633922        -2.678146         1.889534
 H         4.703594        -0.894590         1.839882
 H         4.288843         1.406762         1.052991
 H         4.355649        -1.060651        -0.871561
