19
Iteration:  4962
 C         0.143164         0.164999        -0.435091
 C         1.401682        -0.145888         0.383497
 C         1.228897        -0.834910         1.802810
 C         2.638788        -1.231764         2.481133
 C         3.757751        -0.831240         1.461209
 C         3.644342         0.392272         0.540762
 O         2.388162         0.955580         0.635812
 C         3.550584        -0.940760        -0.080683
 O         2.160371        -1.150569        -0.413872
 H        -0.630412         0.814470         0.104472
 H         0.589653         0.542029        -1.325079
 H        -0.320313        -0.854805        -0.652037
 H         0.765510        -0.088060         2.393421
 H         0.545721        -1.770262         1.675361
 H         2.919694        -0.814937         3.398795
 H         2.681363        -2.281435         2.640555
 H         4.776624        -0.993708         1.669635
 H         4.477181         1.125799         0.563568
 H         4.093251        -1.485947        -0.776031
