19
Iteration:  2201charge 0 multiplicity 1
 C         0.075777         0.126226        -0.279558
 C         1.432421        -0.180428         0.350098
 C         1.286871        -0.943455         1.738047
 C         2.606816        -1.411303         2.335356
 C         3.742410        -0.890352         1.505594
 C         3.576435         0.460729         0.747142
 O         2.271212         1.024445         0.508902
 C         3.676570        -0.808081        -0.024236
 O         2.287077        -1.055514        -0.517504
 H        -0.320570         0.783119         0.496769
 H         0.004736         0.639803        -1.194597
 H        -0.465619        -0.784678        -0.408418
 H         0.771487        -0.272063         2.396721
 H         0.557684        -1.738407         1.569580
 H         2.618447        -0.879408         3.242516
 H         2.623483        -2.533642         2.571503
 H         4.757392        -1.045931         1.784075
 H         4.380268         1.252915         0.900876
 H         4.433692        -1.216469        -0.614188
