19
Iteration:  2634
 C         0.199137         0.232180        -0.245086
 C         1.470718        -0.297643         0.336462
 C         1.183782        -0.986361         1.719290
 C         2.655606        -1.189215         2.415424
 C         3.740627        -0.899131         1.479253
 C         3.536900         0.421853         0.687275
 O         2.280578         0.916601         0.533689
 C         3.609609        -0.862800        -0.092454
 O         2.264708        -1.069741        -0.470764
 H        -0.434471         0.555188         0.605717
 H         0.432592         1.057114        -0.875494
 H        -0.514041        -0.530345        -0.688440
 H         0.300200        -0.375002         2.178533
 H         0.675137        -1.951230         1.492217
 H         2.799374        -0.610776         3.346375
 H         2.806905        -2.199617         2.752191
 H         4.772152        -0.715145         1.771821
 H         4.352878         1.121871         0.791208
 H         4.387657        -0.990201        -0.903389
