19
Iteration:  4348charge 0 multiplicity 1
 C         0.223732         0.252795        -0.339414
 C         1.389500        -0.221090         0.374969
 C         1.196068        -0.812359         1.789584
 C         2.551819        -1.236608         2.345896
 C         3.787861        -0.793670         1.467482
 C         3.639012         0.420428         0.479249
 O         2.333161         0.931039         0.533328
 C         3.605992        -0.978542        -0.019850
 O         2.215932        -1.225142        -0.268312
 H        -0.218322         1.082209         0.222627
 H         0.406738         0.670503        -1.377440
 H        -0.556833        -0.504546        -0.439679
 H         0.690240        -0.130686         2.462494
 H         0.564456        -1.769086         1.698796
 H         2.556446        -0.815259         3.358949
 H         2.742397        -2.339881         2.320969
 H         4.694311        -0.924428         2.037738
 H         4.470935         1.102682         0.237394
 H         4.196127        -1.299136        -0.848956
