19
Iteration:  2455
 C         0.160599         0.030164        -0.346669
 C         1.391798        -0.289626         0.398680
 C         1.254478        -0.717933         1.873022
 C         2.572836        -1.457369         2.206511
 C         3.759014        -0.807648         1.500861
 C         3.546168         0.476499         0.682415
 O         2.301504         0.992666         0.621585
 C         3.666424        -0.923593        -0.060220
 O         2.258169        -0.988806        -0.469249
 H        -0.658790         0.359688         0.314565
 H         0.434855         0.601309        -1.312948
 H        -0.036398        -0.933881        -0.811854
 H         1.207779         0.272221         2.353725
 H         0.299012        -1.264605         2.074902
 H         2.815712        -1.298040         3.218816
 H         2.461717        -2.598672         2.039506
 H         4.699585        -0.916817         2.044680
 H         4.341049         1.218554         0.449692
 H         4.322444        -1.278448        -0.776657
