19
Iteration:  1522
 C         0.096896        -0.027645        -0.297454
 C         1.482095        -0.223379         0.371671
 C         1.243564        -0.858764         1.729771
 C         2.626668        -1.336027         2.329166
 C         3.752424        -0.870385         1.440030
 C         3.664591         0.429309         0.736333
 O         2.234060         0.958847         0.723303
 C         3.599603        -0.781417        -0.067450
 O         2.302064        -0.922304        -0.585638
 H        -0.573464         0.455195         0.421802
 H         0.086324         0.495188        -1.317166
 H        -0.252217        -1.033459        -0.531692
 H         0.743091        -0.080728         2.279580
 H         0.478763        -1.694814         1.415088
 H         2.761426        -1.083511         3.335635
 H         2.528483        -2.363453         2.423412
 H         4.685094        -1.269125         1.962897
 H         4.303474         1.293102         0.710890
 H         4.135107        -1.328453        -0.723783
