19
Iteration:   180charge 0 multiplicity 1
 C         0.190700         0.044798        -0.261120
 C         1.442696        -0.241614         0.399343
 C         1.194028        -0.888578         1.858820
 C         2.517628        -1.499487         2.055036
 C         3.798132        -0.752878         1.484048
 C         3.532581         0.519362         0.733851
 O         2.210189         0.957079         0.609084
 C         3.710247        -0.722733         0.007866
 O         2.365610        -1.031399        -0.487888
 H        -0.588659         0.612218         0.329758
 H         0.206071         0.857549        -1.119501
 H        -0.433652        -0.933356        -0.524468
 H         0.925895        -0.050732         2.579137
 H         0.418870        -1.681939         1.901456
 H         2.675030        -1.803884         3.091869
 H         2.500160        -2.524187         1.498599
 H         4.748546        -1.026368         2.066879
 H         4.257944         1.251377         0.570617
 H         4.507369        -1.066452        -0.582573
