19
Iteration:  4286
 C         0.132340         0.111391        -0.334838
 C         1.422733        -0.142190         0.390658
 C         1.195590        -0.828482         1.762773
 C         2.570118        -1.029006         2.441771
 C         3.704052        -0.891390         1.432855
 C         3.785789         0.325253         0.647005
 O         2.425677         0.970225         0.569649
 C         3.509698        -0.956700        -0.081509
 O         2.179595        -1.138936        -0.488182
 H        -0.449278         0.806991         0.342706
 H         0.365460         0.251971        -1.360747
 H        -0.221112        -0.927334        -0.103016
 H         0.473683        -0.439713         2.495107
 H         0.654829        -1.803971         1.441485
 H         2.669367        -0.465261         3.332252
 H         2.681763        -2.074436         2.868993
 H         4.650927        -1.280721         1.847949
 H         4.498119         1.125017         0.465888
 H         4.208741        -1.609165        -0.660279
