19
Iteration:  2957charge 0 multiplicity 1
 C         0.176936         0.141134        -0.299289
 C         1.427584        -0.294313         0.384670
 C         1.307254        -0.758880         1.863564
 C         2.569502        -1.497782         2.260965
 C         3.674784        -0.785946         1.482673
 C         3.559807         0.514273         0.671618
 O         2.228368         0.964503         0.437306
 C         3.691772        -0.881072        -0.035965
 O         2.301508        -1.088944        -0.384772
 H        -0.415247         0.915851         0.188706
 H         0.420120         0.563373        -1.241663
 H        -0.513418        -0.704977        -0.474360
 H         1.376906         0.083454         2.541808
 H         0.286426        -1.360678         2.052681
 H         2.732457        -1.486658         3.338855
 H         2.467907        -2.550958         2.011365
 H         4.691065        -0.801598         1.882019
 H         4.224106         1.405197         0.669843
 H         4.418500        -1.377486        -0.668064
