19
Iteration:  4469charge 0 multiplicity 1
 C         0.261236         0.264103        -0.366358
 C         1.441953        -0.212223         0.398445
 C         1.259638        -0.881169         1.783953
 C         2.687156        -1.242910         2.404330
 C         3.726222        -0.727439         1.537237
 C         3.579488         0.387585         0.601101
 O         2.353765         0.938741         0.471820
 C         3.480905        -1.029595        -0.011797
 O         2.131621        -1.164864        -0.382788
 H        -0.335439         1.094949         0.120734
 H         0.721756         0.622205        -1.244051
 H        -0.420713        -0.574489        -0.680930
 H         0.695072        -0.150151         2.430268
 H         0.534025        -1.794072         1.679853
 H         2.842498        -0.878196         3.380238
 H         2.650314        -2.357265         2.460923
 H         4.826885        -0.792054         1.643384
 H         4.335049         1.158725         0.533529
 H         4.200500        -1.471220        -0.824646
