19
Iteration:  1591charge 0 multiplicity 1
 C         0.150298         0.238015        -0.353591
 C         1.401443        -0.284812         0.383228
 C         1.261881        -0.912064         1.802871
 C         2.678836        -1.490641         2.130346
 C         3.752710        -0.666446         1.567240
 C         3.516336         0.493382         0.696709
 O         2.216167         0.970115         0.585683
 C         3.617950        -0.797329        -0.045604
 O         2.304136        -1.170887        -0.374848
 H        -0.195254         0.908983         0.419441
 H         0.654204         0.683572        -1.142764
 H        -0.522451        -0.488556        -0.839265
 H         0.886939        -0.046241         2.513542
 H         0.657745        -1.845564         1.849616
 H         2.678238        -1.706700         3.203130
 H         2.731752        -2.513753         1.774951
 H         4.661994        -0.769496         2.074975
 H         4.274431         1.276722         0.523073
 H         4.349043        -1.302159        -0.836191
