19
Iteration:  1401
 C         0.107089         0.000060        -0.255853
 C         1.523745        -0.185534         0.372759
 C         1.294193        -0.955770         1.655774
 C         2.595290        -1.343924         2.394947
 C         3.745978        -0.810661         1.475082
 C         3.618114         0.424970         0.702410
 O         2.315185         0.972922         0.689843
 C         3.515775        -0.876223        -0.022668
 O         2.252999        -0.871638        -0.620191
 H        -0.602352         0.699787         0.281456
 H         0.255693         0.289069        -1.329854
 H        -0.508393        -0.895775        -0.365372
 H         0.592005        -0.359541         2.209451
 H         0.822932        -2.017303         1.379429
 H         2.614828        -0.754040         3.298315
 H         2.672442        -2.388248         2.753305
 H         4.737851        -1.130413         1.833925
 H         4.301642         1.270302         0.747619
 H         4.282922        -1.412884        -0.709880
