19
Iteration:  4134
 C         0.135081         0.117879        -0.329782
 C         1.439653        -0.241558         0.334410
 C         1.263389        -0.699009         1.800536
 C         2.595914        -1.356678         2.455272
 C         3.791663        -0.837295         1.532752
 C         3.637748         0.438488         0.636110
 O         2.311665         0.945814         0.435653
 C         3.603088        -0.929905        -0.010197
 O         2.171771        -1.120817        -0.474361
 H        -0.096741         1.013901         0.213478
 H         0.195735         0.301025        -1.411006
 H        -0.513550        -0.714789        -0.089343
 H         0.983006         0.305396         2.246724
 H         0.377845        -1.343775         2.061144
 H         2.610998        -0.882287         3.466422
 H         2.562455        -2.479674         2.436073
 H         4.788291        -1.140773         1.837613
 H         4.541994         1.111439         0.631170
 H         4.274124        -1.331912        -0.725532
