19
Iteration:  2017charge 0 multiplicity 1
 C         0.188987         0.028489        -0.457120
 C         1.407148        -0.191421         0.392757
 C         1.283378        -0.810386         1.812614
 C         2.647881        -1.501990         2.216817
 C         3.760422        -0.824700         1.436263
 C         3.558162         0.505578         0.752354
 O         2.227141         1.049104         0.688440
 C         3.625052        -0.781859        -0.048263
 O         2.232958        -1.077356        -0.395983
 H        -0.578116         0.728525        -0.092169
 H         0.577838         0.554362        -1.373877
 H        -0.124208        -0.986598        -0.709090
 H         1.140843        -0.020801         2.494354
 H         0.544729        -1.685252         1.985537
 H         2.678882        -1.753757         3.307882
 H         2.520714        -2.438297         1.734787
 H         4.766830        -1.085860         1.841104
 H         4.218780         1.299675         0.831279
 H         4.294736        -1.290055        -0.871938
