19
Iteration:  3280
 C         0.223406         0.277809        -0.331852
 C         1.396154        -0.331455         0.383629
 C         1.219434        -1.144817         1.779934
 C         2.643161        -0.962204         2.437222
 C         3.802886        -0.812446         1.421792
 C         3.646812         0.406088         0.585599
 O         2.266928         0.887328         0.694614
 C         3.544001        -0.935861        -0.031262
 O         2.205614        -1.094262        -0.520073
 H         0.064588         1.284092         0.055348
 H         0.524204         0.487635        -1.373272
 H        -0.711471        -0.248664        -0.598135
 H         0.306521        -0.746394         2.458145
 H         0.838801        -2.096320         1.391905
 H         2.612656        -0.133990         3.134547
 H         2.585875        -1.884397         3.103387
 H         4.844204        -1.103504         1.661129
 H         4.393367         1.001165         0.236179
 H         4.327298        -1.276086        -0.713603
