19
Iteration:  3021charge 0 multiplicity 1
 C         0.249111         0.177604        -0.386677
 C         1.419970        -0.265410         0.382921
 C         1.267441        -1.073192         1.757846
 C         2.610649        -1.128840         2.473917
 C         3.749016        -0.868525         1.423411
 C         3.551791         0.440507         0.610856
 O         2.322931         1.002749         0.703083
 C         3.522622        -0.928122        -0.081624
 O         2.192310        -1.068738        -0.502997
 H        -0.466013         0.622790         0.319686
 H         0.562177         0.961372        -1.022153
 H        -0.014330        -0.755257        -0.919417
 H         0.496180        -0.523925         2.259884
 H         0.947227        -2.117136         1.603603
 H         2.682499        -0.187467         3.147683
 H         2.776448        -1.931960         3.160599
 H         4.723353        -1.204692         1.773019
 H         4.363000         1.081204         0.222336
 H         4.291922        -1.193549        -0.827557
