19
Iteration:  1431
 C         0.109261         0.146206        -0.276357
 C         1.474282        -0.262965         0.381859
 C         1.283587        -1.052691         1.682733
 C         2.617739        -1.160175         2.357226
 C         3.736112        -0.954770         1.413594
 C         3.580010         0.432416         0.764959
 O         2.252143         0.907946         0.698306
 C         3.571675        -0.795486        -0.082048
 O         2.296532        -0.971716        -0.568190
 H        -0.292101         1.067894         0.234001
 H         0.173791         0.689421        -1.220523
 H        -0.631568        -0.696371        -0.456600
 H         0.345547        -0.866120         2.229332
 H         1.245340        -2.138231         1.343122
 H         2.761978        -0.375309         3.126330
 H         2.740241        -1.910261         3.067623
 H         4.679619        -1.170934         1.774868
 H         4.341689         1.237842         0.809783
 H         4.442630        -1.104073        -0.810252
