19
Iteration:  2581charge 0 multiplicity 1
 C         0.166486         0.173830        -0.321884
 C         1.439286        -0.265763         0.435908
 C         1.345664        -1.135321         1.656918
 C         2.579658        -1.093095         2.448112
 C         3.782056        -0.837460         1.562014
 C         3.672724         0.394545         0.622619
 O         2.310254         0.940614         0.727805
 C         3.543864        -0.920601        -0.115891
 O         2.128649        -0.963851        -0.580127
 H        -0.249699         1.074936         0.071869
 H         0.406216         0.474770        -1.276782
 H        -0.414963        -0.753852        -0.363870
 H         0.386009        -0.711810         2.173100
 H         1.031987        -2.063466         1.122003
 H         2.266222        -0.195699         3.154729
 H         2.704295        -1.894411         3.112611
 H         4.824468        -1.175446         1.787018
 H         4.446479         1.149231         0.391760
 H         4.276912        -1.380047        -0.899639
