19
Iteration:  4089
 C         0.239157         0.243903        -0.387412
 C         1.439783        -0.214672         0.446010
 C         1.142659        -0.819744         1.847032
 C         2.616488        -1.366351         2.353141
 C         3.831014        -0.751905         1.491291
 C         3.592079         0.472926         0.526123
 O         2.337621         0.953255         0.417087
 C         3.540509        -0.918592        -0.046533
 O         2.185966        -1.243763        -0.222726
 H        -0.407545         0.854871         0.181320
 H         0.740408         0.840232        -1.220184
 H        -0.264068        -0.586051        -0.820292
 H         0.871418        -0.118826         2.615280
 H         0.284854        -1.573060         1.718965
 H         2.732003        -1.076314         3.380478
 H         2.484211        -2.441191         2.198163
 H         4.883645        -0.786518         1.817197
 H         4.406871         1.198871         0.206204
 H         4.127734        -1.470793        -0.852493
