19
Iteration:  4937
 C         0.208984         0.192506        -0.339097
 C         1.433986        -0.191432         0.354105
 C         1.337451        -0.833777         1.775929
 C         2.619744        -1.136428         2.370909
 C         3.786002        -0.940156         1.452427
 C         3.523961         0.368309         0.730824
 O         2.238483         0.912865         0.508695
 C         3.510901        -0.982047         0.017228
 O         2.225796        -1.110857        -0.467824
 H        -0.085584         0.989730         0.324752
 H         0.672534         0.625043        -1.260086
 H        -0.604710        -0.513982        -0.364372
 H         0.936589         0.023505         2.471943
 H         0.701755        -1.629339         1.742469
 H         2.897837        -0.479310         3.266415
 H         2.639907        -2.116461         2.795711
 H         4.837702        -1.278915         1.579025
 H         4.284410         0.994439         0.381556
 H         4.290057        -1.233121        -0.857321
