19
Iteration:  2223
 C         0.231425         0.025029        -0.385189
 C         1.418012        -0.205818         0.403211
 C         1.268963        -0.772711         1.784825
 C         2.608160        -1.384454         2.255969
 C         3.775189        -0.869867         1.441698
 C         3.561395         0.462536         0.727992
 O         2.238187         0.965803         0.689805
 C         3.588728        -0.797231        -0.081539
 O         2.259537        -1.059944        -0.429779
 H        -0.470602         0.691514         0.121609
 H         0.340105         0.381737        -1.356596
 H        -0.237773        -0.934609        -0.550570
 H         0.990517         0.053156         2.396412
 H         0.387909        -1.401875         1.798346
 H         2.735783        -1.374659         3.304926
 H         2.540666        -2.480798         1.882757
 H         4.712807        -1.129001         1.855473
 H         4.407115         1.212133         0.543028
 H         4.265563        -1.052225        -0.827797
