19
Iteration:  3439
 C         0.122223         0.129755        -0.370664
 C         1.402732        -0.133415         0.394175
 C         1.235272        -0.845871         1.775243
 C         2.644792        -1.307649         2.383248
 C         3.769425        -0.789593         1.530652
 C         3.635383         0.384608         0.588024
 O         2.331874         0.994744         0.524598
 C         3.599494        -0.925731        -0.031247
 O         2.195840        -1.148933        -0.444992
 H        -0.353246         0.962870         0.258719
 H         0.359163         0.283741        -1.382377
 H        -0.430367        -0.821770        -0.137562
 H         0.751829        -0.113114         2.454703
 H         0.516218        -1.771873         1.740148
 H         2.785426        -0.987868         3.434506
 H         2.547615        -2.378586         2.486369
 H         4.781368        -0.774248         1.919348
 H         4.396777         1.073903         0.580296
 H         4.348288        -1.205380        -0.781961
