19
Iteration:    23
 C        -0.062542         0.067684        -0.260516
 C         1.415156        -0.188296         0.318399
 C         1.226337        -1.032005         1.617956
 C         2.589349        -1.231145         2.341116
 C         3.845650        -0.959621         1.385031
 C         3.668835         0.447175         0.805339
 O         2.299747         0.939296         0.793099
 C         3.660219        -0.734331        -0.103121
 O         2.310816        -0.980707        -0.573525
 H        -0.619068         0.510548         0.576539
 H        -0.062459         0.706244        -1.097226
 H        -0.451364        -0.913576        -0.599065
 H         0.547283        -0.488595         2.289526
 H         0.780585        -2.001046         1.402518
 H         2.699064        -0.506370         3.144077
 H         2.635589        -2.237019         2.773828
 H         4.786766        -1.228288         1.772197
 H         4.430248         1.221567         0.879402
 H         4.431592        -0.886202        -0.822511
