19
Iteration:  2532
 C         0.125176         0.199239        -0.204588
 C         1.422136        -0.226352         0.351021
 C         1.236831        -0.996231         1.665666
 C         2.612673        -1.249933         2.372719
 C         3.809281        -0.799760         1.540318
 C         3.612933         0.447179         0.683342
 O         2.275508         0.908359         0.596373
 C         3.533656        -0.877317        -0.037208
 O         2.295296        -1.099710        -0.555730
 H        -0.256873         1.163491         0.211365
 H         0.285968         0.510761        -1.336207
 H        -0.494702        -0.689147        -0.187686
 H         0.784916        -0.217981         2.272594
 H         0.466313        -1.772573         1.548135
 H         2.585066        -0.830099         3.329366
 H         2.743862        -2.386498         2.536716
 H         4.837155        -0.914679         1.786791
 H         4.397659         1.209363         0.423417
 H         4.344618        -1.032993        -0.607346
