19
Iteration:  4878
 C         0.150067         0.227486        -0.297147
 C         1.448035        -0.109084         0.388171
 C         1.290404        -0.889041         1.727395
 C         2.587858        -1.218818         2.484851
 C         3.826053        -0.859223         1.492196
 C         3.616623         0.353724         0.582062
 O         2.281957         0.969696         0.485867
 C         3.614826        -1.044113        -0.036241
 O         2.175422        -1.107887        -0.440486
 H        -0.227768         1.180057         0.105269
 H         0.276090         0.453729        -1.333150
 H        -0.580220        -0.592686        -0.285313
 H         0.614429        -0.473612         2.445460
 H         0.739536        -1.824968         1.430839
 H         2.681827        -0.494102         3.316181
 H         2.477074        -2.322559         2.909913
 H         4.839979        -0.961480         1.843103
 H         4.331292         1.212428         0.524881
 H         4.183226        -1.553277        -0.697986
