19
Iteration:  1146
 C         0.114215         0.070746        -0.225345
 C         1.490851        -0.159159         0.370536
 C         1.254938        -0.968644         1.642392
 C         2.574236        -1.459405         2.300598
 C         3.780031        -0.876127         1.466933
 C         3.572036         0.553513         0.804235
 O         2.259921         1.056137         0.532161
 C         3.597020        -0.732610        -0.035301
 O         2.291139        -1.090432        -0.488662
 H        -0.368048         0.589887         0.594594
 H         0.051849         0.606722        -1.231408
 H        -0.303299        -0.957167        -0.456132
 H         0.499815        -0.439178         2.289615
 H         0.776090        -1.914677         1.375212
 H         2.931723        -1.329224         3.340375
 H         2.442681        -2.545673         2.430525
 H         4.868085        -0.877892         1.916884
 H         4.358680         1.258840         1.030969
 H         4.384670        -1.028626        -0.796135
