19
Iteration:  1998
 C         0.262576        -0.026780        -0.433381
 C         1.452282        -0.132405         0.473928
 C         1.201764        -0.878163         1.799054
 C         2.609436        -1.463413         2.186301
 C         3.787872        -0.881045         1.397230
 C         3.602368         0.467237         0.782764
 O         2.247630         1.016847         0.661733
 C         3.548634        -0.764966        -0.063280
 O         2.223923        -1.008101        -0.405389
 H        -0.598049         0.644058        -0.042144
 H         0.458501         0.378618        -1.435969
 H        -0.163574        -1.121592        -0.430529
 H         0.841853        -0.216605         2.618784
 H         0.535008        -1.577420         1.376908
 H         2.826697        -0.983692         3.221815
 H         2.512258        -2.561760         2.357370
 H         4.761151        -0.987116         1.805275
 H         4.404092         1.188930         0.656175
 H         4.353939        -0.798485        -0.849794
