19
Iteration:   554charge 0 multiplicity 1
 C         0.145868         0.263060        -0.241517
 C         1.458544        -0.286494         0.379632
 C         1.248828        -1.274669         1.586604
 C         2.643773        -1.327220         2.399253
 C         3.786331        -0.767822         1.511538
 C         3.499412         0.531613         0.769352
 O         2.206615         0.934530         0.619246
 C         3.662864        -0.788757        -0.014918
 O         2.275744        -0.963830        -0.574052
 H        -0.431175         0.644094         0.639211
 H         0.560776         1.086991        -0.831202
 H        -0.459456        -0.522813        -0.760589
 H         0.384007        -1.003181         2.207952
 H         1.226379        -2.226298         1.021579
 H         2.592932        -0.654233         3.252580
 H         2.742704        -2.399596         2.607042
 H         4.839449        -0.942109         1.766933
 H         4.192855         1.359933         0.576747
 H         4.342017        -1.122435        -0.797890
