19
Iteration:   847charge 0 multiplicity 1
 C         0.180446         0.058568        -0.484270
 C         1.421554        -0.229189         0.408951
 C         1.269986        -0.945059         1.782443
 C         2.694956        -1.433937         2.186928
 C         3.811627        -0.930860         1.446838
 C         3.512805         0.493737         0.866213
 O         2.106027         0.982735         0.719525
 C         3.628798        -0.670543        -0.116190
 O         2.299530        -0.983469        -0.459226
 H        -0.377807         0.843680         0.034813
 H         0.583846         0.447349        -1.468445
 H        -0.326399        -0.957975        -0.538159
 H         0.955195        -0.233957         2.581152
 H         0.523275        -1.625884         1.919032
 H         2.951078        -1.186906         3.289509
 H         2.552863        -2.613921         2.166519
 H         4.916196        -1.122672         1.635098
 H         4.227514         1.203391         1.089780
 H         4.315451        -0.902834        -0.878099
