19
Iteration:  3641
 C         0.138589         0.194535        -0.305070
 C         1.419508        -0.279874         0.402285
 C         1.214890        -0.694563         1.851159
 C         2.585648        -1.431777         2.215310
 C         3.781776        -0.753513         1.513377
 C         3.628774         0.439334         0.606757
 O         2.267997         0.912079         0.463739
 C         3.648398        -0.864784         0.008010
 O         2.267709        -1.193487        -0.393581
 H        -0.274496         1.049229         0.305494
 H         0.347751         0.468560        -1.340796
 H        -0.391631        -0.777469        -0.148188
 H         1.050707         0.259989         2.462823
 H         0.223985        -1.272552         2.069391
 H         2.541289        -1.382375         3.298349
 H         2.508949        -2.500606         1.947365
 H         4.738571        -0.707933         1.931406
 H         4.306218         1.205547         0.554917
 H         4.426433        -1.214186        -0.625497
