19
Iteration:  3502charge 0 multiplicity 1
 C         0.211127         0.260433        -0.291537
 C         1.407298        -0.206299         0.444260
 C         1.308023        -1.075827         1.636941
 C         2.562481        -0.986978         2.507548
 C         3.775970        -0.859037         1.521291
 C         3.674119         0.419132         0.531289
 O         2.320654         0.884162         0.599483
 C         3.510622        -0.987387        -0.049638
 O         2.153072        -1.103092        -0.507852
 H        -0.366619         1.088809         0.130159
 H         0.427226         0.556315        -1.261296
 H        -0.569464        -0.478498        -0.385918
 H         0.390295        -1.150539         2.296941
 H         1.345803        -2.009396         1.199737
 H         2.713772        -0.188609         3.241160
 H         2.736170        -1.930645         3.008639
 H         4.753398        -1.056778         1.919663
 H         4.294950         1.251817         0.466429
 H         4.354100        -1.405977        -0.600324
