19
Iteration:  1203
 C         0.225941         0.203114        -0.399148
 C         1.419815        -0.271944         0.407945
 C         1.290771        -1.141251         1.653856
 C         2.653506        -1.201528         2.349887
 C         3.763740        -0.873643         1.385053
 C         3.547789         0.464902         0.718812
 O         2.195380         0.897416         0.840324
 C         3.546921        -0.725874        -0.090597
 O         2.287223        -1.067004        -0.523854
 H        -0.268568         0.994315         0.203920
 H         0.533203         0.812691        -1.225103
 H        -0.585489        -0.490767        -0.642486
 H         0.645429        -0.629708         2.310139
 H         0.769619        -2.123009         1.468005
 H         2.756514        -0.296380         2.955099
 H         2.775268        -2.229947         2.827998
 H         4.725740        -1.171892         1.774889
 H         4.252978         1.299912         0.793242
 H         4.347807        -0.958070        -0.750328
