19
Iteration:  3690
 C         0.082236         0.150521        -0.365070
 C         1.441955        -0.169552         0.410752
 C         1.238076        -0.931956         1.769563
 C         2.652298        -1.168545         2.409715
 C         3.800036        -0.873363         1.498590
 C         3.645403         0.343100         0.639111
 O         2.322166         0.962160         0.561928
 C         3.542773        -0.945861        -0.065264
 O         2.215769        -1.055133        -0.469504
 H        -0.518471         0.895277         0.094255
 H         0.558244         0.603967        -1.259491
 H        -0.339930        -0.796745        -0.575178
 H         0.717409        -0.290683         2.464801
 H         0.576967        -1.735875         1.629511
 H         2.686728        -0.544006         3.328505
 H         2.660558        -2.216053         2.784956
 H         4.772468        -1.216927         1.941145
 H         4.276092         1.249420         0.434871
 H         4.228744        -1.368335        -0.807890
