19
Iteration:  2296charge 0 multiplicity 1
 C         0.066738         0.164903        -0.215641
 C         1.455096        -0.246220         0.309093
 C         1.227562        -0.925329         1.762634
 C         2.571862        -1.346909         2.332887
 C         3.742022        -0.804923         1.520005
 C         3.605673         0.435257         0.689173
 O         2.270555         0.950018         0.524290
 C         3.668767        -0.845927        -0.033317
 O         2.343734        -1.058689        -0.512333
 H        -0.452891         0.814255         0.495598
 H         0.002774         0.856847        -1.115428
 H        -0.558848        -0.598032        -0.618390
 H         0.696134        -0.163697         2.378160
 H         0.621181        -1.806921         1.820192
 H         2.684811        -1.126150         3.369489
 H         2.585910        -2.392239         2.173434
 H         4.728776        -1.088442         1.846455
 H         4.387664         1.252204         0.674567
 H         4.486540        -1.234470        -0.514910
