19
Iteration:   940
 C         0.183883         0.098765        -0.343719
 C         1.431552        -0.321620         0.363172
 C         1.313961        -1.001647         1.706588
 C         2.686751        -1.391110         2.350119
 C         3.741117        -0.859371         1.481293
 C         3.471840         0.439896         0.782425
 O         2.196241         0.953135         0.685466
 C         3.581937        -0.742777        -0.073309
 O         2.303477        -0.879587        -0.585861
 H        -0.479566         0.587317         0.359158
 H         0.468398         0.851170        -1.094329
 H        -0.248582        -0.767685        -0.832217
 H         0.635326        -0.443234         2.314037
 H         0.591960        -1.928524         1.632226
 H         2.722274        -0.898097         3.320786
 H         2.976924        -2.415990         2.583955
 H         4.778794        -0.997806         1.692204
 H         4.279687         1.151018         0.987490
 H         4.401782        -1.030152        -0.674451
