19
Iteration:  1900
 C         0.160142         0.104121        -0.304353
 C         1.400562        -0.243316         0.341942
 C         1.308173        -1.129614         1.570919
 C         2.579752        -1.112382         2.435537
 C         3.796997        -0.856309         1.453172
 C         3.644893         0.397841         0.727565
 O         2.272294         0.874174         0.808077
 C         3.533320        -0.864505        -0.048710
 O         2.238722        -0.906864        -0.573780
 H        -0.407124         0.904445         0.229751
 H         0.456115         0.714437        -1.193464
 H        -0.491035        -0.747267        -0.648411
 H         0.404181        -0.660028         2.110745
 H         1.150279        -2.067907         1.093015
 H         2.665431        -0.264725         3.127377
 H         2.648387        -1.963512         3.149808
 H         4.819678        -1.123116         1.702062
 H         4.291197         1.191976         0.569469
 H         4.258044        -1.068154        -0.911158
