19
Iteration:  3874charge 0 multiplicity 1
 C         0.106084         0.203882        -0.292476
 C         1.450711        -0.197225         0.389993
 C         1.322559        -0.706459         1.739306
 C         2.581737        -1.347599         2.236183
 C         3.794357        -0.812141         1.537224
 C         3.550396         0.434532         0.626078
 O         2.302948         0.945143         0.446167
 C         3.619949        -0.986092        -0.014141
 O         2.232133        -1.234247        -0.302942
 H        -0.473865         0.824380         0.333011
 H         0.422180         0.936413        -1.078505
 H        -0.523394        -0.588505        -0.654360
 H         1.078454         0.173458         2.463697
 H         0.401302        -1.209228         1.732763
 H         2.688339        -1.273903         3.310711
 H         2.417152        -2.368811         2.112314
 H         4.768152        -0.857124         2.025176
 H         4.346461         1.120448         0.733538
 H         4.265090        -1.262987        -0.852827
