19
Iteration:  4494charge 0 multiplicity 1
 C         0.167978         0.213266        -0.321013
 C         1.430749        -0.254373         0.336605
 C         1.247923        -0.760423         1.806066
 C         2.609328        -1.122522         2.419267
 C         3.743691        -0.965268         1.487006
 C         3.628982         0.386370         0.565473
 O         2.272683         0.905531         0.625689
 C         3.597093        -0.933086        -0.034897
 O         2.255394        -1.173498        -0.498062
 H        -0.233291         1.074086         0.241749
 H         0.403083         0.528021        -1.406045
 H        -0.620630        -0.550647        -0.366490
 H         0.786350        -0.002144         2.319506
 H         0.487291        -1.598254         1.909757
 H         2.865034        -0.460113         3.272451
 H         2.367584        -2.136952         2.835123
 H         4.770975        -1.289792         1.542712
 H         4.324773         1.167501         0.240971
 H         4.350444        -1.275947        -0.649658
