19
Iteration:  1715charge 0 multiplicity 1
 C         0.127229         0.360571        -0.253446
 C         1.459434        -0.336308         0.367356
 C         1.284864        -1.211591         1.587126
 C         2.596579        -1.185629         2.390873
 C         3.816678        -0.924551         1.411540
 C         3.493323         0.513484         0.683168
 O         2.200742         0.958851         0.625753
 C         3.620801        -0.818738         0.025781
 O         2.301504        -1.095762        -0.487303
 H        -0.214621         1.024088         0.508718
 H         0.646017         1.063249        -0.954694
 H        -0.477231        -0.426895        -0.585974
 H         0.349423        -0.895013         2.291953
 H         1.122375        -2.190309         1.143105
 H         2.746701        -0.316102         3.035140
 H         2.808875        -2.122578         3.054863
 H         4.856089        -1.039145         1.876468
 H         4.212165         1.382655         0.691569
 H         4.181627        -1.117793        -0.743404
