19
Iteration:  2916charge 0 multiplicity 1
 C         0.149430         0.045526        -0.505735
 C         1.456559        -0.158259         0.427082
 C         1.305745        -0.748933         1.802592
 C         2.597796        -1.489290         2.169759
 C         3.783306        -0.787084         1.390506
 C         3.561557         0.480250         0.644087
 O         2.289255         1.001386         0.668717
 C         3.570621        -0.829716        -0.029622
 O         2.223955        -1.137132        -0.214514
 H        -0.419634         0.968797        -0.296351
 H         0.590224        -0.009429        -1.586958
 H        -0.665060        -0.697574        -0.351082
 H         0.981954         0.032064         2.534324
 H         0.414050        -1.455143         1.822967
 H         2.741712        -1.263632         3.190616
 H         2.680938        -2.653564         2.003928
 H         4.795631        -0.838269         1.860851
 H         4.414919         1.126424         0.719411
 H         4.211584        -1.239396        -0.853609
