19
Iteration:    34charge 0 multiplicity 1
 C         0.102012         0.003563        -0.191199
 C         1.477678        -0.183384         0.365967
 C         1.323201        -1.066272         1.563706
 C         2.582126        -1.185244         2.316739
 C         3.736758        -0.976158         1.435334
 C         3.642800         0.453573         0.706574
 O         2.257823         0.917501         0.806335
 C         3.609056        -0.829454        -0.042935
 O         2.261426        -0.861168        -0.618033
 H        -0.601068         0.448926         0.509791
 H         0.129887         0.708832        -0.979872
 H        -0.424866        -0.819997        -0.622001
 H         0.644480        -0.544804         2.252182
 H         0.840292        -1.992619         1.265497
 H         2.574246        -0.361279         3.012954
 H         2.581743        -2.126798         2.882737
 H         4.712060        -1.035560         1.781378
 H         4.304017         1.291689         0.905877
 H         4.310348        -1.121449        -0.788448
