19
Iteration:  1378charge 0 multiplicity 1
 C         0.148582         0.164391        -0.310735
 C         1.468494        -0.241058         0.383863
 C         1.190209        -0.997536         1.733974
 C         2.606716        -1.369217         2.298437
 C         3.816989        -0.787494         1.472163
 C         3.589237         0.492843         0.690549
 O         2.253875         1.005775         0.627388
 C         3.600840        -0.843359        -0.014177
 O         2.289348        -1.050136        -0.482591
 H        -0.543704         0.759069         0.350872
 H         0.235567         0.580597        -1.323818
 H        -0.462913        -0.752816        -0.504837
 H         0.711117        -0.247699         2.364907
 H         0.593744        -2.000168         1.757318
 H         2.646806        -1.330430         3.383406
 H         2.707160        -2.436211         2.126589
 H         4.739770        -1.107028         1.859710
 H         4.317848         1.306525         0.521721
 H         4.371559        -1.132934        -0.815477
