19
Iteration:  1233
 C         0.233128         0.311168        -0.372558
 C         1.379711        -0.222263         0.434430
 C         1.254229        -1.259981         1.598509
 C         2.672189        -1.267694         2.378790
 C         3.808304        -0.721008         1.446000
 C         3.574001         0.464556         0.651311
 O         2.223426         0.886579         0.737758
 C         3.526865        -0.780225        -0.069925
 O         2.249499        -1.089075        -0.429916
 H        -0.325401         0.899467         0.395975
 H         0.730238         0.909863        -1.226697
 H        -0.667396        -0.288972        -0.755898
 H         0.429862        -0.827353         2.330159
 H         1.045698        -2.202957         1.031288
 H         2.566774        -0.540288         3.262053
 H         2.941031        -2.266433         2.755249
 H         4.856471        -1.070672         1.841373
 H         4.191326         1.359981         0.509142
 H         4.338187        -1.086508        -0.775873
