19
Iteration:  1730charge 0 multiplicity 1
 C         0.191250         0.252220        -0.304957
 C         1.409326        -0.228147         0.360600
 C         1.238500        -1.135468         1.630494
 C         2.651783        -1.229624         2.411140
 C         3.781108        -0.796996         1.500478
 C         3.604743         0.434359         0.733747
 O         2.223572         0.902172         0.684984
 C         3.575683        -0.830267        -0.127218
 O         2.263069        -1.036046        -0.521886
 H        -0.364966         0.820920         0.474988
 H         0.278435         0.803411        -1.200848
 H        -0.560420        -0.511507        -0.670783
 H         0.547161        -0.765245         2.279297
 H         0.945855        -2.162138         1.315244
 H         2.567217        -0.584432         3.332804
 H         2.783076        -2.217770         2.850369
 H         4.797416        -0.958743         1.764269
 H         4.329556         1.221567         0.622568
 H         4.518468        -1.152372        -0.744713
