19
Iteration:  1135
 C         0.169247         0.131448        -0.264666
 C         1.456971        -0.174839         0.392674
 C         1.255012        -0.948574         1.723703
 C         2.639712        -1.459570         2.217914
 C         3.742809        -0.849163         1.508533
 C         3.523054         0.499041         0.742963
 O         2.208299         0.965535         0.545924
 C         3.642703        -0.710379        -0.044311
 O         2.316673        -1.117403        -0.441090
 H        -0.469589         0.650209         0.459986
 H         0.347259         0.879994        -1.093819
 H        -0.466167        -0.772727        -0.466897
 H         0.764630        -0.371834         2.535640
 H         0.648703        -1.750346         1.314937
 H         2.554937        -1.140399         3.264812
 H         2.714203        -2.536910         1.969540
 H         4.790826        -0.925488         2.007299
 H         4.171232         1.340733         0.901447
 H         4.450027        -0.854744        -0.809150
