19
Iteration:  1979
 C         0.125382         0.108109        -0.347370
 C         1.442993        -0.237330         0.385429
 C         1.253559        -1.010101         1.704793
 C         2.600113        -1.325580         2.359142
 C         3.778414        -0.904526         1.472158
 C         3.578638         0.513950         0.729912
 O         2.255362         0.982651         0.672384
 C         3.626083        -0.827726        -0.094250
 O         2.291938        -0.976868        -0.493533
 H        -0.583613         0.734235         0.201176
 H         0.343460         0.571326        -1.278960
 H        -0.493033        -0.806296        -0.477825
 H         0.574541        -0.226468         2.239105
 H         0.633168        -1.898326         1.500130
 H         2.792047        -0.922723         3.328513
 H         2.711858        -2.455442         2.404159
 H         4.781023        -1.135729         1.770164
 H         4.339231         1.362110         0.808972
 H         4.342831        -1.166974        -0.788198
