19
Iteration:  1720
 C         0.150368         0.331757        -0.282697
 C         1.457578        -0.313859         0.350738
 C         1.242972        -1.182175         1.629722
 C         2.647904        -1.218831         2.421935
 C         3.828422        -0.881039         1.421994
 C         3.499886         0.482594         0.721523
 O         2.213153         0.950951         0.640978
 C         3.609851        -0.804490        -0.019319
 O         2.297611        -1.073368        -0.485403
 H        -0.317627         0.982813         0.514284
 H         0.509552         1.036193        -1.017999
 H        -0.586030        -0.491607        -0.567758
 H         0.374534        -0.916005         2.088247
 H         1.012634        -2.171770         1.164639
 H         2.581501        -0.312641         3.078469
 H         2.698236        -2.147590         2.937920
 H         4.833998        -0.973441         1.725778
 H         4.244714         1.229234         0.610528
 H         4.291042        -1.302292        -0.863526
