19
Iteration:  3503
 C         0.217714         0.259654        -0.294426
 C         1.411716        -0.200413         0.446139
 C         1.308112        -1.084343         1.639047
 C         2.569504        -0.983551         2.506830
 C         3.775877        -0.865912         1.519013
 C         3.674090         0.422382         0.525260
 O         2.321248         0.886385         0.594979
 C         3.501985        -0.980652        -0.043391
 O         2.154293        -1.106754        -0.505797
 H        -0.377606         1.068220         0.134764
 H         0.423525         0.572594        -1.234457
 H        -0.580039        -0.456765        -0.388743
 H         0.389314        -1.144170         2.281679
 H         1.333780        -2.046902         1.170853
 H         2.676045        -0.200656         3.251830
 H         2.745778        -1.911575         3.008842
 H         4.746544        -1.047486         1.957554
 H         4.280769         1.247262         0.498644
 H         4.301185        -1.418444        -0.606871
