19
Iteration:  2048charge 0 multiplicity 1
 C         0.175236         0.221895        -0.243675
 C         1.412090        -0.262824         0.333876
 C         1.299473        -0.891500         1.781849
 C         2.612308        -1.508185         2.205688
 C         3.715232        -0.765555         1.555101
 C         3.521891         0.511640         0.744583
 O         2.169949         0.953712         0.458875
 C         3.675888        -0.799785         0.001209
 O         2.344518        -1.131134        -0.420111
 H        -0.520816         0.686446         0.399587
 H         0.454392         0.883720        -1.087914
 H        -0.355124        -0.577257        -0.598795
 H         1.226681        -0.023474         2.468041
 H         0.331957        -1.563474         1.825996
 H         2.633829        -1.746651         3.241107
 H         2.512082        -2.476076         1.681426
 H         4.784911        -0.816715         1.992698
 H         4.202596         1.309111         0.703087
 H         4.609521        -0.962684        -0.705976
