19
Iteration:  1319
 C         0.177281         0.081916        -0.408357
 C         1.433878        -0.213551         0.428225
 C         1.311556        -0.891221         1.766070
 C         2.630612        -1.504184         2.217954
 C         3.747699        -0.788623         1.524383
 C         3.552849         0.518939         0.661969
 O         2.253924         0.935050         0.667507
 C         3.610786        -0.808835        -0.032203
 O         2.202832        -0.984807        -0.429150
 H        -0.568578         0.730132         0.028104
 H         0.484540         0.656732        -1.307647
 H        -0.090238        -0.999495        -0.549052
 H         0.987331         0.012296         2.447876
 H         0.515748        -1.613888         1.896939
 H         2.661370        -1.474594         3.324268
 H         2.775755        -2.483418         1.774990
 H         4.803086        -0.971568         1.969957
 H         4.228088         1.340348         0.456412
 H         4.372908        -1.184477        -0.662235
