19
Iteration:  3077charge 0 multiplicity 1
 C         0.229669         0.212772        -0.237202
 C         1.404209        -0.227891         0.398599
 C         1.258189        -1.068778         1.674761
 C         2.562622        -1.104415         2.442379
 C         3.737429        -0.810676         1.516579
 C         3.640174         0.454439         0.563637
 O         2.275307         0.927531         0.603019
 C         3.532459        -0.900414        -0.013463
 O         2.254743        -1.108965        -0.539755
 H        -0.175664         1.038287         0.375556
 H         0.567408         0.526446        -1.280561
 H        -0.582311        -0.519034        -0.156666
 H         0.426710        -0.684218         2.183920
 H         1.106740        -2.123741         1.254819
 H         2.698395        -0.382700         3.324443
 H         2.727247        -2.134022         2.793816
 H         4.742901        -1.270971         1.731362
 H         4.364002         1.191740         0.391010
 H         4.321674        -1.453221        -0.690050
