19
Iteration:   151
 C         0.133192        -0.023995        -0.347581
 C         1.460722        -0.081987         0.365736
 C         1.434263        -0.894628         1.692385
 C         2.636794        -1.603549         2.301717
 C         3.789892        -0.913685         1.477260
 C         3.487842         0.465620         0.882082
 O         2.214437         1.104755         0.589051
 C         3.540701        -0.728221        -0.024084
 O         2.253047        -0.962593        -0.517128
 H        -0.642787         0.612350        -0.013487
 H         0.382268         0.281628        -1.398310
 H        -0.341471        -0.990802        -0.411370
 H         1.031967        -0.248769         2.446738
 H         0.580238        -1.589004         1.636779
 H         2.669262        -1.479345         3.440878
 H         2.639357        -2.638359         2.097795
 H         4.766688        -1.081522         1.809912
 H         4.337413         1.164691         0.822833
 H         4.353402        -0.981222        -0.668081
