19
Iteration:   468charge 0 multiplicity 1
 C         0.206416         0.128720        -0.348433
 C         1.472384        -0.248286         0.323027
 C         1.330273        -1.091653         1.593500
 C         2.668063        -1.416477         2.334633
 C         3.778572        -0.786491         1.547105
 C         3.505386         0.512212         0.748244
 O         2.186597         0.914636         0.752350
 C         3.556451        -0.774351        -0.017645
 O         2.260109        -0.898124        -0.526593
 H        -0.346835         0.928421         0.220745
 H         0.249968         0.447648        -1.384374
 H        -0.526546        -0.704709        -0.449398
 H         0.683629        -0.484331         2.206792
 H         0.704880        -1.917854         1.351074
 H         2.857441        -1.176130         3.399707
 H         2.787081        -2.615981         2.254803
 H         4.873661        -0.977685         1.854625
 H         4.176928         1.308148         0.664302
 H         4.239128        -1.004100        -0.805488
