19
Iteration:   395
 C         0.124510         0.003362        -0.418415
 C         1.427966        -0.153217         0.380358
 C         1.341589        -0.948542         1.851765
 C         2.656833        -1.606459         2.179423
 C         3.676478        -0.751740         1.530136
 C         3.559338         0.536141         0.780631
 O         2.237041         1.053592         0.687783
 C         3.643428        -0.823350         0.000708
 O         2.272047        -0.932936        -0.530518
 H        -0.736955         0.216951         0.171524
 H         0.005247         0.644418        -1.299797
 H        -0.133940        -1.007488        -0.794891
 H         1.119935        -0.135754         2.615381
 H         0.534193        -1.728853         1.860353
 H         2.763708        -1.902646         3.282918
 H         2.690147        -2.449877         1.503835
 H         4.876608        -0.909433         1.604149
 H         4.278364         1.312120         0.717031
 H         4.353343        -1.085024        -0.740196
