19
Iteration:  2326charge 0 multiplicity 1
 C         0.143058         0.131776        -0.236559
 C         1.509233        -0.186973         0.327206
 C         1.340295        -1.075267         1.642359
 C         2.596044        -1.176763         2.420438
 C         3.711472        -0.824223         1.485662
 C         3.600402         0.367961         0.731159
 O         2.303998         0.964865         0.650796
 C         3.534742        -0.888032        -0.055048
 O         2.215748        -0.976997        -0.578695
 H        -0.507867         0.883301         0.236993
 H         0.453179         0.559058        -1.269285
 H        -0.308463        -0.862532        -0.294532
 H         0.517900        -0.467322         2.188605
 H         0.799717        -2.050573         1.290787
 H         2.502531        -0.484682         3.390257
 H         2.637776        -2.189728         2.829645
 H         4.746893        -1.148255         1.734817
 H         4.374477         1.096420         0.685941
 H         4.304502        -1.373166        -0.647487
