19
Iteration:   378
 C         0.146946        -0.040553        -0.368335
 C         1.448230        -0.242507         0.426048
 C         1.253750        -0.886642         1.817864
 C         2.611598        -1.540954         2.230452
 C         3.799117        -0.893754         1.441137
 C         3.549144         0.512711         0.779402
 O         2.205733         0.961036         0.707162
 C         3.611352        -0.668951        -0.097730
 O         2.299984        -0.876363        -0.562302
 H        -0.694521         0.376353         0.246309
 H         0.457956         0.677630        -1.169795
 H        -0.065301        -0.985235        -0.883451
 H         0.958833        -0.070909         2.471564
 H         0.396508        -1.564140         1.815535
 H         2.797378        -1.387479         3.312315
 H         2.662625        -2.658458         2.213782
 H         4.697525        -1.010111         1.903278
 H         4.300775         1.367760         0.921555
 H         4.411580        -1.019118        -0.811008
