19
Iteration:  3777
 C         0.202338         0.200369        -0.147030
 C         1.489385        -0.198491         0.347592
 C         1.251912        -0.918175         1.691825
 C         2.569368        -1.108726         2.457294
 C         3.731137        -0.885004         1.529106
 C         3.572222         0.376019         0.562604
 O         2.364159         0.938150         0.523228
 C         3.533981        -1.038441         0.011446
 O         2.220647        -1.057260        -0.574476
 H        -0.369838         0.918441         0.344176
 H         0.280335         0.548480        -1.231041
 H        -0.400976        -0.690494        -0.157661
 H         0.350632        -0.533121         2.297191
 H         0.949607        -1.883749         1.347363
 H         2.598373        -0.362292         3.293722
 H         2.726034        -2.116190         2.951773
 H         4.758236        -0.913060         1.895191
 H         4.311645         1.128862         0.375635
 H         4.295584        -1.378484        -0.652567
