19
Iteration:  2754charge 0 multiplicity 1
 C         0.172080         0.130720        -0.302175
 C         1.447753        -0.182406         0.369360
 C         1.236074        -0.934773         1.733394
 C         2.575564        -1.408403         2.323975
 C         3.791451        -0.787536         1.518418
 C         3.594339         0.486852         0.624231
 O         2.303149         0.983270         0.526533
 C         3.573372        -0.827219        -0.087242
 O         2.260988        -1.100783        -0.348821
 H        -0.291174         0.879921         0.372986
 H         0.273622         0.457456        -1.375719
 H        -0.490037        -0.777207        -0.164159
 H         0.716232        -0.257525         2.454248
 H         0.505800        -1.659971         1.425487
 H         2.487114        -1.208049         3.426773
 H         2.715794        -2.515667         2.210276
 H         4.734460        -0.844201         2.023228
 H         4.498365         1.158194         0.543785
 H         4.197438        -1.131933        -0.835862
