19
Iteration:   746charge 0 multiplicity 1
 C         0.193046         0.148988        -0.302752
 C         1.469315        -0.275778         0.369644
 C         1.271169        -1.255449         1.538227
 C         2.590432        -1.178511         2.319005
 C         3.826837        -0.855647         1.508635
 C         3.571472         0.537343         0.615431
 O         2.210106         0.891070         0.903852
 C         3.532885        -0.771646        -0.056629
 O         2.277507        -0.860206        -0.557825
 H        -0.426241         0.499092         0.547164
 H         0.428288         0.707229        -1.197521
 H        -0.142385        -0.770905        -0.778869
 H         0.396512        -0.906965         2.140958
 H         1.038478        -2.189655         1.236324
 H         2.342963        -0.468190         3.162639
 H         2.771339        -2.224180         2.844375
 H         4.668503        -1.378685         1.775186
 H         4.361685         1.387498         0.511020
 H         4.354303        -1.385030        -0.586955
