19
Iteration:  3594charge 0 multiplicity 1
 C         0.179867         0.072044        -0.428323
 C         1.455371        -0.089590         0.463402
 C         1.294737        -0.777335         1.851078
 C         2.609432        -1.409135         2.351113
 C         3.759789        -0.818298         1.493916
 C         3.583659         0.490361         0.653382
 O         2.302194         0.944020         0.466652
 C         3.571511        -0.941161        -0.057900
 O         2.176192        -1.091235        -0.370096
 H        -0.482038         0.676635         0.160685
 H         0.485119         0.590248        -1.421507
 H        -0.131643        -0.971259        -0.429943
 H         0.877746        -0.051672         2.512009
 H         0.307060        -1.482040         1.741893
 H         2.763923        -1.163884         3.417648
 H         2.773225        -2.495562         2.281512
 H         4.787094        -1.102298         1.883065
 H         4.390908         1.300619         0.403404
 H         4.177932        -1.319954        -0.927669
