19
Iteration:  2955charge 0 multiplicity 1
 C         0.179416         0.141139        -0.323483
 C         1.431152        -0.292491         0.402190
 C         1.301774        -0.748483         1.901831
 C         2.572533        -1.497756         2.236826
 C         3.679904        -0.786557         1.486869
 C         3.556101         0.513279         0.666784
 O         2.227511         0.947573         0.440886
 C         3.674388        -0.871939        -0.011296
 O         2.301663        -1.090690        -0.398057
 H        -0.369670         0.974508         0.151802
 H         0.428180         0.518584        -1.237996
 H        -0.476463        -0.737198        -0.479476
 H         1.352790         0.071461         2.570872
 H         0.354076        -1.332720         1.995836
 H         2.751764        -1.548181         3.362566
 H         2.470787        -2.494013         1.947790
 H         4.696928        -0.787524         1.786122
 H         4.272023         1.389645         0.625984
 H         4.366929        -1.308279        -0.643437
