19
Iteration:  2735
 C         0.069228         0.173165        -0.303145
 C         1.397981        -0.177743         0.380293
 C         1.245058        -0.803580         1.787752
 C         2.670709        -1.506638         2.210041
 C         3.791063        -0.755286         1.570939
 C         3.568779         0.504108         0.682690
 O         2.248975         0.971337         0.467587
 C         3.654065        -0.891828         0.092992
 O         2.264837        -1.137500        -0.441580
 H        -0.395874         0.976837         0.169572
 H         0.292676         0.330167        -1.362952
 H        -0.564892        -0.646553        -0.405434
 H         0.953953         0.094016         2.429325
 H         0.511551        -1.688858         1.751167
 H         2.919355        -1.501921         3.312848
 H         2.656196        -2.449461         1.809023
 H         4.894735        -0.915220         1.826105
 H         4.374157         1.277079         0.626564
 H         4.430109        -1.376953        -0.546040
