19
Iteration:  3765
 C         0.159283         0.255464        -0.231364
 C         1.488256        -0.162046         0.419607
 C         1.368049        -1.069861         1.634730
 C         2.582959        -1.094680         2.533574
 C         3.684784        -0.797144         1.501610
 C         3.691247         0.379415         0.578305
 O         2.306118         0.975032         0.518210
 C         3.465302        -1.012852         0.005334
 O         2.185984        -1.125081        -0.553229
 H        -0.239274         0.953637         0.455186
 H         0.429324         0.734087        -1.225212
 H        -0.453016        -0.612919        -0.358028
 H         0.431904        -0.684861         2.264845
 H         1.126487        -2.032541         1.284493
 H         2.643731        -0.252646         3.260415
 H         2.508543        -2.032549         3.112209
 H         4.655688        -1.272381         1.798113
 H         4.568094         1.037136         0.335386
 H         4.232759        -1.470465        -0.589647
