19
Iteration:  3591
 C         0.182251         0.077673        -0.429851
 C         1.434626        -0.112846         0.483427
 C         1.279233        -0.783212         1.839974
 C         2.642428        -1.369505         2.367078
 C         3.741486        -0.832106         1.477043
 C         3.600775         0.438284         0.644425
 O         2.284011         0.970994         0.469342
 C         3.571853        -0.943453        -0.067886
 O         2.208973        -1.064261        -0.366178
 H        -0.534095         0.655729         0.168260
 H         0.430531         0.543489        -1.364836
 H        -0.120821        -0.967451        -0.471017
 H         0.829436        -0.059745         2.541156
 H         0.451479        -1.507997         1.699348
 H         2.672157        -1.149945         3.461650
 H         2.693191        -2.475849         2.228537
 H         4.751908        -1.203298         1.863055
 H         4.353483         1.288174         0.400511
 H         4.210751        -1.378379        -0.862031
