19
Iteration:   595
 C         0.127883         0.037788        -0.404987
 C         1.408202        -0.275274         0.335975
 C         1.202286        -0.961224         1.739296
 C         2.630280        -1.459615         2.289488
 C         3.872480        -0.842491         1.461167
 C         3.585513         0.529779         0.726697
 O         2.192461         0.958452         0.816511
 C         3.622711        -0.752956        -0.054128
 O         2.308190        -0.915623        -0.543321
 H        -0.643145         0.410594         0.285690
 H         0.323581         0.747711        -1.189425
 H        -0.210559        -0.942583        -0.650586
 H         0.701645        -0.147447         2.406171
 H         0.604308        -1.878244         1.403327
 H         2.788819        -1.272692         3.339630
 H         2.701573        -2.502373         2.214306
 H         4.757777        -0.944670         1.927182
 H         4.234476         1.392289         0.659803
 H         4.397138        -0.908883        -0.800433
