19
Iteration:  3065charge 0 multiplicity 1
 C         0.169825         0.283572        -0.323184
 C         1.460281        -0.314171         0.396632
 C         1.227790        -1.125151         1.681669
 C         2.637664        -1.040707         2.442588
 C         3.799527        -0.855895         1.448704
 C         3.642203         0.409501         0.578223
 O         2.235492         0.942594         0.704644
 C         3.535222        -0.929956        -0.017294
 O         2.231696        -1.101829        -0.530414
 H        -0.172011         1.186535         0.260213
 H         0.490268         0.717235        -1.298083
 H        -0.627650        -0.427263        -0.669654
 H         0.473635        -0.779166         2.338503
 H         0.871696        -2.159294         1.479256
 H         2.482046        -0.142095         3.180342
 H         2.771352        -1.911236         3.085683
 H         4.789884        -1.027945         1.931740
 H         4.375491         1.104908         0.198295
 H         4.456153        -1.202096        -0.696210
