19
Iteration:  2831
 C         0.210150         0.246196        -0.211105
 C         1.501113        -0.192075         0.373803
 C         1.294785        -1.197705         1.626339
 C         2.552494        -0.998537         2.410033
 C         3.724205        -0.850805         1.454543
 C         3.635593         0.408444         0.622396
 O         2.297427         0.883523         0.662102
 C         3.558148        -0.919690        -0.115193
 O         2.162352        -1.055247        -0.465952
 H        -0.480750         0.535542         0.580000
 H         0.261688         1.007009        -1.102594
 H        -0.045747        -0.691030        -0.731733
 H         0.371154        -0.808033         2.106562
 H         1.174906        -2.132345         1.175451
 H         2.398723         0.003220         2.942165
 H         2.706796        -1.794409         3.188607
 H         4.753705        -1.046553         1.899153
 H         4.459275         1.108957         0.653679
 H         4.381327        -1.442390        -0.694790
