19
Iteration:   775
 C         0.093158         0.323401        -0.185615
 C         1.447201        -0.284465         0.311589
 C         1.355653        -1.271110         1.543953
 C         2.642039        -1.220072         2.440318
 C         3.775987        -0.910448         1.521019
 C         3.467264         0.481768         0.829156
 O         2.157564         0.937438         0.608743
 C         3.627449        -0.746789        -0.102589
 O         2.362549        -1.014630        -0.617935
 H        -0.223746         0.719340         0.802701
 H         0.334809         1.102778        -0.916764
 H        -0.520195        -0.457151        -0.608007
 H         0.478691        -1.124537         2.169534
 H         1.032075        -2.322462         1.093193
 H         2.413723        -0.477895         3.170417
 H         2.744721        -2.082791         2.994250
 H         4.801566        -1.006758         1.978808
 H         4.236332         1.252161         0.999678
 H         4.532544        -0.891119        -0.755511
