19
Iteration:  4933charge 0 multiplicity 1
 C         0.189165         0.222465        -0.307310
 C         1.433040        -0.192082         0.358826
 C         1.310002        -0.832133         1.754385
 C         2.631452        -1.147413         2.416604
 C         3.757128        -0.928066         1.456103
 C         3.527537         0.350405         0.670237
 O         2.245835         0.874921         0.501340
 C         3.545969        -0.961494        -0.008456
 O         2.259065        -1.103698        -0.464042
 H        -0.134473         1.112265         0.240998
 H         0.633554         0.640787        -1.222042
 H        -0.573372        -0.545832        -0.284743
 H         0.877985        -0.063130         2.384566
 H         0.551733        -1.684715         1.787907
 H         2.965215        -0.485731         3.263193
 H         2.579270        -2.225489         2.889754
 H         4.823421        -1.177332         1.691617
 H         4.317475         1.113139         0.414814
 H         4.203475        -1.227296        -0.767849
