19
Iteration:  1316
 C         0.170236         0.056163        -0.392600
 C         1.440831        -0.195784         0.408014
 C         1.324748        -0.904600         1.769637
 C         2.601228        -1.464184         2.205656
 C         3.747448        -0.797721         1.522083
 C         3.554837         0.506414         0.673525
 O         2.253574         0.947545         0.675964
 C         3.592173        -0.822285        -0.036479
 O         2.218729        -0.968627        -0.425024
 H        -0.551706         0.701428         0.068203
 H         0.428861         0.574503        -1.333033
 H        -0.017458        -0.966601        -0.500207
 H         0.987140        -0.041800         2.334731
 H         0.515453        -1.564140         1.845030
 H         2.739969        -1.501474         3.314813
 H         2.732686        -2.601931         1.864592
 H         4.798602        -0.979473         1.927488
 H         4.266023         1.329401         0.508188
 H         4.418776        -1.197139        -0.752166
