19
Iteration:  3359charge 0 multiplicity 1
 C         0.177861         0.016500        -0.300772
 C         1.454667        -0.154489         0.365665
 C         1.286654        -0.734729         1.825336
 C         2.640483        -1.334841         2.329581
 C         3.771873        -0.818318         1.532347
 C         3.578748         0.450062         0.708952
 O         2.336789         1.026944         0.474284
 C         3.552606        -0.991246        -0.024255
 O         2.168572        -1.106682        -0.486522
 H        -0.607623         0.409785         0.342728
 H         0.248959         0.649387        -1.234029
 H        -0.185615        -0.963534        -0.556823
 H         0.904634         0.166312         2.499987
 H         0.531131        -1.496027         1.636532
 H         2.804577        -1.094161         3.379907
 H         2.386449        -2.387120         2.217966
 H         4.714758        -1.042978         2.073878
 H         4.411260         1.238472         0.450656
 H         4.211014        -1.450913        -0.775783
