19
Iteration:  3577
 C         0.155867         0.050902        -0.329561
 C         1.449661        -0.200878         0.366074
 C         1.240889        -0.819625         1.819621
 C         2.591071        -1.243671         2.346622
 C         3.791758        -0.901602         1.461320
 C         3.648728         0.408788         0.594147
 O         2.292200         1.048313         0.552512
 C         3.543381        -0.925107         0.013194
 O         2.207234        -1.080362        -0.439815
 H        -0.655460         0.666357         0.132413
 H         0.520603         0.627512        -1.155617
 H        -0.345187        -0.811286        -0.787594
 H         0.644725        -0.098494         2.475065
 H         0.701476        -1.685154         1.784633
 H         2.999766        -0.916959         3.336904
 H         2.550974        -2.364783         2.474037
 H         4.820299        -0.958637         1.691522
 H         4.489483         0.971895         0.656947
 H         4.281907        -1.393990        -0.585060
