19
Iteration:  3195
 C         0.143539         0.150476        -0.385730
 C         1.472113        -0.233677         0.405537
 C         1.293084        -0.814768         1.846824
 C         2.583382        -1.284184         2.323778
 C         3.765639        -0.843412         1.507217
 C         3.584035         0.474427         0.609103
 O         2.268931         1.013251         0.528211
 C         3.580866        -0.899846        -0.009675
 O         2.225326        -1.212055        -0.427703
 H        -0.598962         0.540122         0.294792
 H         0.512186         0.979121        -1.017467
 H        -0.280716        -0.646981        -0.988727
 H         0.992435        -0.026738         2.553102
 H         0.618427        -1.644200         1.779941
 H         2.859240        -1.133182         3.374666
 H         2.455804        -2.324171         2.134400
 H         4.739510        -0.924782         2.037873
 H         4.451889         1.012021         0.485326
 H         4.325418        -1.295184        -0.742647
