19
Iteration:  3585
 C         0.186243         0.076807        -0.380529
 C         1.416948        -0.160695         0.466278
 C         1.252265        -0.781385         1.832230
 C         2.659612        -1.311761         2.375184
 C         3.741479        -0.860417         1.454514
 C         3.630961         0.367906         0.615421
 O         2.268483         1.022725         0.488335
 C         3.553997        -0.928205        -0.051338
 O         2.243994        -1.044385        -0.374095
 H        -0.634808         0.616919         0.097663
 H         0.412268         0.531543        -1.405010
 H        -0.217281        -0.927051        -0.645634
 H         0.819118        -0.085635         2.545113
 H         0.623816        -1.729941         1.665022
 H         2.682603        -1.111629         3.440726
 H         2.535996        -2.385276         2.220940
 H         4.714368        -1.184249         1.772314
 H         4.334387         1.180798         0.512655
 H         4.290972        -1.432465        -0.685749
