19
Iteration:   871charge 0 multiplicity 1
 C         0.183818         0.114717        -0.398581
 C         1.469387        -0.248062         0.415277
 C         1.328600        -0.936611         1.798154
 C         2.648718        -1.607434         2.203742
 C         3.743658        -0.817295         1.551808
 C         3.442266         0.572962         0.750223
 O         2.165470         0.969813         0.627079
 C         3.585071        -0.668605        -0.050975
 O         2.330371        -1.042068        -0.478673
 H        -0.439257         0.784356         0.210428
 H         0.599190         0.706868        -1.222465
 H        -0.291279        -0.805386        -0.762862
 H         1.067921        -0.171377         2.523212
 H         0.450937        -1.552425         1.907377
 H         2.912923        -1.649525         3.315599
 H         2.630608        -2.706288         1.850406
 H         4.839811        -0.938499         1.686980
 H         4.109215         1.435301         0.760212
 H         4.421920        -0.915319        -0.791392
