19
Iteration:  4676
 C         0.130981         0.263980        -0.253442
 C         1.494556        -0.258085         0.308749
 C         1.182367        -0.733271         1.793054
 C         2.572087        -1.231483         2.349879
 C         3.778753        -0.830911         1.503330
 C         3.727076         0.435080         0.552743
 O         2.282709         0.890935         0.576900
 C         3.596071        -0.933959        -0.020927
 O         2.228596        -1.283853        -0.446503
 H        -0.247193         1.128254         0.266636
 H         0.350348         0.693842        -1.290552
 H        -0.728543        -0.385131        -0.347273
 H         0.632807         0.158418         2.078077
 H         0.581748        -1.645674         1.779380
 H         2.639903        -0.886941         3.481206
 H         2.536200        -2.389814         2.396937
 H         4.773968        -0.909685         1.942494
 H         4.393182         1.324380         0.545890
 H         4.166402        -1.404788        -0.657316
