19
Iteration:  4653
 C         0.163150         0.189624        -0.248713
 C         1.513143        -0.177970         0.384420
 C         1.226181        -0.835827         1.782376
 C         2.578765        -1.222038         2.366801
 C         3.732310        -0.860648         1.471375
 C         3.608127         0.373357         0.679227
 O         2.336958         0.975363         0.443129
 C         3.559572        -1.053223        -0.017609
 O         2.250346        -1.110360        -0.447624
 H        -0.472685         0.934446         0.289076
 H         0.338672         0.597143        -1.240037
 H        -0.501053        -0.680460        -0.416202
 H         0.811049         0.035701         2.368147
 H         0.500917        -1.581482         1.614892
 H         2.581396        -0.498985         3.294436
 H         2.654334        -2.267433         2.750601
 H         4.713807        -1.097069         1.909410
 H         4.312519         1.130302         0.360833
 H         4.152757        -1.431471        -0.792893
