19
Iteration:  3217
 C         0.144001         0.131625        -0.213492
 C         1.464057        -0.219118         0.320870
 C         1.188619        -0.833030         1.700005
 C         2.562330        -1.250162         2.455318
 C         3.745931        -0.795236         1.501259
 C         3.636811         0.430417         0.655330
 O         2.294301         0.855445         0.512735
 C         3.639522        -0.926811        -0.025505
 O         2.241664        -1.060559        -0.541379
 H        -0.434197         0.437231         0.621728
 H         0.209645         0.967504        -0.972185
 H        -0.246787        -0.802931        -0.578417
 H         0.948468         0.082368         2.328693
 H         0.563513        -1.686487         1.785331
 H         2.769316        -0.537204         3.269378
 H         2.543137        -2.273767         2.712498
 H         4.817050        -1.029091         1.736987
 H         4.431165         1.101136         0.576595
 H         4.305059        -1.487548        -0.671949
