19
Iteration:  3998
 C         0.131540         0.314627        -0.358021
 C         1.405958        -0.169763         0.350435
 C         1.324293        -1.026096         1.758393
 C         2.608860        -1.060495         2.539146
 C         3.776410        -0.858662         1.551754
 C         3.610797         0.353495         0.560469
 O         2.368353         0.912838         0.525434
 C         3.518625        -1.008985        -0.033346
 O         2.184520        -1.136553        -0.508993
 H        -0.306656         1.161986         0.249767
 H         0.350448         0.697075        -1.301689
 H        -0.728438        -0.381332        -0.328827
 H         0.521167        -0.550852         2.332428
 H         1.102049        -2.130708         1.561076
 H         2.546870        -0.296631         3.268012
 H         2.758395        -2.056326         2.942395
 H         4.787959        -1.018815         1.952132
 H         4.459546         1.035699         0.389998
 H         4.203696        -1.470327        -0.674943
