19
Iteration:  1565
 C         0.186248         0.128778        -0.344820
 C         1.443288        -0.152165         0.396692
 C         1.300760        -0.832849         1.815078
 C         2.608661        -1.584724         2.192843
 C         3.804691        -0.859823         1.527403
 C         3.491468         0.532320         0.717829
 O         2.204746         0.997258         0.513848
 C         3.614897        -0.714015        -0.059271
 O         2.276535        -1.119130        -0.378031
 H        -0.398133         0.640459         0.435507
 H         0.488871         0.583009        -1.358009
 H        -0.280741        -0.808677        -0.656999
 H         0.996027        -0.150147         2.550168
 H         0.589788        -1.762083         1.760524
 H         2.564250        -1.454791         3.319893
 H         2.578676        -2.681279         1.999017
 H         4.929170        -1.005055         1.801486
 H         4.166353         1.410194         0.796262
 H         4.320985        -1.081495        -0.685791
