19
Iteration:  2267
 C         0.279286         0.154419        -0.398846
 C         1.475590        -0.184624         0.394632
 C         1.320986        -0.807771         1.816966
 C         2.625920        -1.530454         2.184455
 C         3.809266        -0.826368         1.512549
 C         3.478329         0.478982         0.683148
 O         2.170179         1.039801         0.529169
 C         3.543477        -0.807729        -0.024862
 O         2.238421        -1.164848        -0.299112
 H        -0.457014         0.718471         0.203441
 H         0.521985         0.750548        -1.230951
 H        -0.283549        -0.658094        -0.894298
 H         1.021007        -0.111621         2.554560
 H         0.593819        -1.619668         1.873588
 H         2.766243        -1.459079         3.260137
 H         2.558823        -2.684103         1.899996
 H         4.810159        -0.962854         1.837962
 H         4.281097         1.292962         0.642440
 H         4.309222        -1.036661        -0.754697
