19
Iteration:   173
 C         0.134014         0.029934        -0.291431
 C         1.454613        -0.235503         0.351788
 C         1.215963        -0.878193         1.836255
 C         2.548976        -1.581948         2.078683
 C         3.755747        -0.785044         1.476028
 C         3.543508         0.542261         0.734333
 O         2.245979         1.003194         0.603181
 C         3.696344        -0.737048         0.004033
 O         2.335764        -0.988425        -0.446925
 H        -0.533218         0.533422         0.403316
 H         0.229265         0.536984        -1.269554
 H        -0.292799        -0.944602        -0.472002
 H         0.977595        -0.163512         2.595636
 H         0.365819        -1.577292         1.912002
 H         2.781677        -1.590419         3.195696
 H         2.532829        -2.590649         1.757311
 H         4.675219        -0.986123         1.919524
 H         4.328954         1.330739         0.904950
 H         4.496955        -1.084292        -0.641178
