19
Iteration:  3196
 C         0.140687         0.150550        -0.375952
 C         1.483970        -0.237177         0.404987
 C         1.290803        -0.810791         1.847906
 C         2.582607        -1.275771         2.328554
 C         3.762952        -0.847915         1.507514
 C         3.580014         0.475455         0.604666
 O         2.268769         1.009528         0.530294
 C         3.575072        -0.903978        -0.014636
 O         2.234828        -1.210126        -0.436020
 H        -0.595298         0.519070         0.308646
 H         0.513761         0.993480        -1.029408
 H        -0.288080        -0.639788        -0.974013
 H         0.970320        -0.059061         2.513051
 H         0.579945        -1.622775         1.757275
 H         2.851614        -1.136629         3.403633
 H         2.466889        -2.325754         2.155528
 H         4.729658        -0.944214         2.030820
 H         4.459220         1.039077         0.482608
 H         4.317056        -1.275095        -0.709254
