19
Iteration:  2217
 C         0.165219         0.052560        -0.313977
 C         1.475295        -0.239052         0.373967
 C         1.251960        -0.766841         1.734539
 C         2.593752        -1.417514         2.294435
 C         3.779310        -0.904847         1.401287
 C         3.562488         0.511082         0.747468
 O         2.246993         1.014172         0.654603
 C         3.572719        -0.832882        -0.045310
 O         2.303121        -1.070110        -0.449384
 H        -0.661598         0.634811         0.130467
 H         0.467629         0.408748        -1.384560
 H        -0.476803        -0.860028        -0.532041
 H         0.882353         0.070905         2.413324
 H         0.425550        -1.575619         1.673860
 H         2.904545        -1.311062         3.408912
 H         2.532230        -2.461031         2.143739
 H         4.755151        -1.097166         1.933230
 H         4.319323         1.218948         0.624606
 H         4.301362        -1.014410        -0.915439
