19
Iteration:  3945
 C         0.141086         0.212363        -0.385305
 C         1.387731        -0.159222         0.428552
 C         1.189935        -0.892725         1.723979
 C         2.590676        -1.048992         2.391312
 C         3.829346        -0.915293         1.418443
 C         3.695604         0.384186         0.603523
 O         2.345746         0.946378         0.643487
 C         3.550228        -0.992440        -0.066162
 O         2.178405        -1.189291        -0.396066
 H        -0.350586         1.111868         0.095469
 H         0.608428         0.661844        -1.256667
 H        -0.499155        -0.690436        -0.449730
 H         0.404332        -0.484270         2.287233
 H         0.809759        -1.981692         1.594205
 H         2.650809        -0.312062         3.209216
 H         2.757053        -2.066587         2.921663
 H         4.846983        -1.286622         1.660584
 H         4.535773         1.065033         0.456754
 H         4.290753        -1.243949        -0.762272
