19
Iteration:  4162
 C         0.159829         0.060698        -0.326430
 C         1.430676        -0.165738         0.422853
 C         1.266767        -0.706166         1.853404
 C         2.660830        -1.245680         2.466106
 C         3.672743        -0.920717         1.443668
 C         3.557520         0.360313         0.698491
 O         2.317767         0.980238         0.474595
 C         3.562689        -0.994352        -0.019744
 O         2.249257        -1.064940        -0.582380
 H        -0.177782         1.022833         0.085994
 H         0.514290         0.184332        -1.413705
 H        -0.504600        -0.785531        -0.139688
 H         0.805191         0.141553         2.296989
 H         0.504007        -1.526358         1.986247
 H         2.772987        -0.496575         3.216013
 H         2.578160        -2.321187         2.768351
 H         4.740082        -1.027660         1.741058
 H         4.576940         0.702626         0.557372
 H         4.440774        -1.254773        -0.756364
