19
Iteration:   714
 C         0.155362         0.120044        -0.431415
 C         1.421400        -0.218556         0.407980
 C         1.288126        -1.116983         1.680035
 C         2.687821        -1.290924         2.358067
 C         3.794536        -0.909456         1.449609
 C         3.526036         0.441045         0.874886
 O         2.176680         0.951487         0.746124
 C         3.616458        -0.658295        -0.149419
 O         2.278617        -0.950807        -0.559129
 H        -0.696920         0.622926         0.072915
 H         0.316085         0.666937        -1.352264
 H        -0.328426        -0.841869        -0.604238
 H         0.722462        -0.654429         2.494900
 H         1.043432        -2.054307         1.264359
 H         2.768917        -0.687751         3.333139
 H         2.780696        -2.439640         2.580708
 H         4.737698        -1.167922         1.759604
 H         4.305632         1.212206         1.245126
 H         4.244741        -1.116194        -0.977104
