19
Iteration:  1542charge 0 multiplicity 1
 C         0.086291        -0.036217        -0.332147
 C         1.478948        -0.186894         0.374272
 C         1.261635        -0.869825         1.804179
 C         2.605640        -1.442652         2.254601
 C         3.728654        -0.807738         1.441242
 C         3.604386         0.471535         0.760767
 O         2.294583         1.013804         0.662373
 C         3.620408        -0.877942         0.006934
 O         2.251039        -0.929282        -0.565388
 H        -0.600823         0.457861         0.397809
 H         0.315711         0.386670        -1.388836
 H        -0.272121        -1.019015        -0.618169
 H         1.073790         0.029573         2.302386
 H         0.383646        -1.618366         1.874405
 H         2.603908        -1.326562         3.402125
 H         2.614430        -2.546354         2.053406
 H         4.806442        -0.960994         1.784243
 H         4.342625         1.228177         0.698420
 H         4.429573        -1.032364        -0.691071
