19
Iteration:  1389
 C         0.132791         0.041880        -0.310416
 C         1.414996        -0.216847         0.353144
 C         1.282835        -0.963790         1.720495
 C         2.619087        -1.316554         2.338492
 C         3.678071        -0.828734         1.511090
 C         3.634865         0.485834         0.676112
 O         2.289687         0.964708         0.682549
 C         3.603839        -0.867167        -0.008089
 O         2.251602        -0.926128        -0.567200
 H        -0.317288         0.817630         0.392008
 H         0.208184         0.579859        -1.265118
 H        -0.321585        -0.974698        -0.290750
 H         0.650017        -0.474921         2.461618
 H         0.599178        -1.895439         1.352462
 H         2.777247        -1.107138         3.402928
 H         2.749789        -2.362250         2.204837
 H         4.673850        -0.987012         1.792624
 H         4.516265         1.120197         0.449123
 H         4.462420        -1.393558        -0.630722
