19
Iteration:  4974
 C         0.192628         0.135334        -0.421299
 C         1.478088        -0.144678         0.497628
 C         1.214514        -0.825649         1.854226
 C         2.554635        -1.229208         2.372272
 C         3.777003        -0.781937         1.449119
 C         3.660912         0.356502         0.479038
 O         2.349791         0.916214         0.602944
 C         3.537477        -0.985766        -0.088933
 O         2.209805        -1.073199        -0.352688
 H        -0.582991         0.768503         0.149484
 H         0.286589         0.741828        -1.310550
 H        -0.305333        -0.847236        -0.715766
 H         0.689532        -0.275361         2.552464
 H         0.479634        -1.751334         1.649047
 H         2.481912        -0.831724         3.310730
 H         2.666155        -2.299383         2.457579
 H         4.716196        -1.110691         1.845467
 H         4.411842         1.113672         0.100023
 H         4.282750        -1.345113        -0.657209
