19
Iteration:    67charge 0 multiplicity 1
 C         0.087013         0.292648        -0.356168
 C         1.433280        -0.246029         0.398282
 C         1.374707        -1.309112         1.670457
 C         2.646576        -1.253094         2.478075
 C         3.734202        -0.859529         1.503699
 C         3.614130         0.497769         0.649836
 O         2.266046         0.917415         0.687872
 C         3.539607        -0.779619        -0.056360
 O         2.207873        -0.946560        -0.615994
 H        -0.449984         0.873464         0.408629
 H         0.562500         0.950208        -0.994974
 H        -0.376603        -0.547172        -0.767061
 H         0.503227        -1.127803         2.322220
 H         1.263501        -2.255848         1.148221
 H         2.601626        -0.529920         3.287771
 H         2.862898        -2.188742         3.010288
 H         4.663442        -1.029882         1.913311
 H         4.363634         1.301864         0.848567
 H         4.322126        -1.148700        -0.701270
