19
Iteration:  4100
 C         0.237087         0.237531        -0.354691
 C         1.435056        -0.112471         0.457984
 C         1.161618        -0.760494         1.833171
 C         2.549954        -1.345121         2.283787
 C         3.845679        -0.716264         1.435266
 C         3.681068         0.404951         0.496483
 O         2.257983         0.974996         0.466089
 C         3.608203        -0.987670        -0.013821
 O         2.176634        -1.297112        -0.222013
 H        -0.439697         0.850376         0.166761
 H         0.398389         0.718960        -1.387982
 H        -0.335095        -0.642352        -0.479302
 H         0.581275        -0.093239         2.485033
 H         0.487616        -1.675417         1.530431
 H         2.723556        -1.371024         3.351538
 H         2.774363        -2.402444         2.070387
 H         4.886895        -0.785981         1.806907
 H         4.326456         1.348763         0.529201
 H         4.474149        -1.497197        -0.547456
