19
Iteration:   463
 C         0.170433         0.167063        -0.312686
 C         1.480986        -0.275040         0.310044
 C         1.351283        -1.069252         1.634045
 C         2.625468        -1.467996         2.322336
 C         3.821979        -0.760006         1.534140
 C         3.482456         0.533227         0.741972
 O         2.155838         0.908171         0.735133
 C         3.608849        -0.796978        -0.005611
 O         2.269447        -0.935935        -0.559683
 H        -0.418572         0.933326         0.183135
 H         0.388711         0.569482        -1.335710
 H        -0.524106        -0.657672        -0.427147
 H         0.897853        -0.314288         2.362632
 H         0.637626        -1.944311         1.436761
 H         2.652994        -1.146798         3.389451
 H         2.789259        -2.455902         2.048584
 H         4.728486        -1.081580         1.980570
 H         4.155787         1.449739         0.690374
 H         4.446408        -0.933260        -0.739326
