19
Iteration:  1862
 C         0.144872         0.078842        -0.346916
 C         1.502763        -0.233277         0.415452
 C         1.226427        -0.946017         1.702599
 C         2.646890        -1.401570         2.364431
 C         3.753524        -0.899648         1.425398
 C         3.547948         0.489612         0.767846
 O         2.220307         0.989550         0.654390
 C         3.600372        -0.778169        -0.106118
 O         2.280628        -1.016469        -0.506691
 H        -0.448286         0.735875         0.291964
 H         0.564358         0.668039        -1.211100
 H        -0.466530        -0.765072        -0.667063
 H         0.745461        -0.295368         2.373089
 H         0.492608        -1.798806         1.508296
 H         2.811143        -0.729791         3.260234
 H         2.773087        -2.453156         2.635559
 H         4.768078        -1.007391         1.850743
 H         4.311627         1.338038         0.766801
 H         4.416056        -1.033896        -0.760285
