19
Iteration:  2182charge 0 multiplicity 1
 C         0.089217         0.236037        -0.155202
 C         1.507624        -0.234109         0.347040
 C         1.253780        -1.067924         1.625185
 C         2.605581        -1.303854         2.403708
 C         3.734967        -0.760474         1.569532
 C         3.590809         0.460566         0.713780
 O         2.283459         0.909331         0.493068
 C         3.561647        -0.923585         0.012243
 O         2.293828        -0.987565        -0.569923
 H        -0.369366         0.949441         0.535494
 H         0.317805         0.765081        -1.033753
 H        -0.402564        -0.736171        -0.426117
 H         0.406054        -0.560857         2.133031
 H         0.926811        -2.138186         1.265992
 H         2.677817        -0.916038         3.464658
 H         2.773287        -2.332002         2.435345
 H         4.730032        -0.847083         1.919096
 H         4.340223         1.287472         0.507231
 H         4.298939        -1.153126        -0.686756
