19
Iteration:  1829charge 0 multiplicity 1
 C         0.098919         0.136935        -0.314778
 C         1.397444        -0.200414         0.435200
 C         1.222583        -0.895104         1.748051
 C         2.672501        -1.588091         2.134825
 C         3.765295        -0.684408         1.562437
 C         3.551298         0.567252         0.694555
 O         2.256657         1.013087         0.549824
 C         3.664585        -0.823423         0.034653
 O         2.300424        -1.157140        -0.397563
 H        -0.518028         0.832995         0.278855
 H         0.329298         0.864779        -1.134937
 H        -0.570701        -0.636933        -0.749627
 H         1.017996        -0.117316         2.447800
 H         0.368362        -1.630927         1.540274
 H         2.659564        -1.827269         3.243852
 H         2.868023        -2.589973         1.712035
 H         4.751998        -0.774580         1.976563
 H         4.342511         1.317420         0.498557
 H         4.425181        -1.339077        -0.698450
