19
Iteration:  3693charge 0 multiplicity 1
 C         0.087933         0.152688        -0.378859
 C         1.439336        -0.205428         0.403913
 C         1.261055        -0.915047         1.792418
 C         2.623887        -1.147074         2.416569
 C         3.791280        -0.872256         1.475957
 C         3.683863         0.364343         0.656478
 O         2.323360         0.953294         0.587228
 C         3.543309        -0.956155        -0.077996
 O         2.196311        -1.065797        -0.478268
 H        -0.459947         0.910028         0.210020
 H         0.553292         0.661663        -1.269070
 H        -0.399020        -0.813956        -0.628211
 H         0.663189        -0.312836         2.424255
 H         0.571597        -1.842357         1.570566
 H         2.584787        -0.499810         3.292131
 H         2.735442        -2.173986         2.801269
 H         4.749422        -1.130926         1.847192
 H         4.318128         1.150724         0.441976
 H         4.259549        -1.257787        -0.810907
