19
Iteration:   512
 C         0.193917         0.132181        -0.269326
 C         1.454808        -0.276418         0.341078
 C         1.259837        -1.179545         1.536669
 C         2.576293        -1.172393         2.364142
 C         3.803522        -0.917626         1.401854
 C         3.565447         0.443559         0.797886
 O         2.205806         0.874029         0.824887
 C         3.586814        -0.700676        -0.099560
 O         2.291243        -0.896513        -0.547340
 H        -0.306466         0.884461         0.401318
 H         0.288015         0.545814        -1.303436
 H        -0.558821        -0.723393        -0.447861
 H         0.393820        -1.000840         2.162350
 H         1.048943        -2.169086         1.108928
 H         2.421671        -0.231106         2.987346
 H         2.811880        -2.172647         2.980763
 H         4.928665        -1.044251         1.799033
 H         4.336642         1.220054         0.770903
 H         4.452341        -0.951009        -0.685418
