19
Iteration:  3631
 C         0.145138         0.148411        -0.316310
 C         1.484192        -0.216847         0.331491
 C         1.259202        -0.655933         1.886786
 C         2.524725        -1.426872         2.224966
 C         3.825040        -0.782306         1.481257
 C         3.555088         0.519914         0.608593
 O         2.214134         0.883204         0.498529
 C         3.663066        -0.969221         0.034001
 O         2.305919        -1.174288        -0.355271
 H        -0.245097         1.020307         0.284691
 H         0.258835         0.558676        -1.294808
 H        -0.745253        -0.486408        -0.442307
 H         1.178631         0.269649         2.549976
 H         0.433497        -1.356561         1.956433
 H         2.841496        -1.504889         3.273737
 H         2.357629        -2.441561         1.809176
 H         4.736487        -0.922340         1.989804
 H         4.128028         1.349437         0.395824
 H         4.318831        -1.297328        -0.738529
