19
Iteration:  4364
 C         0.189771         0.138007        -0.349784
 C         1.467306        -0.142081         0.431422
 C         1.194596        -0.759462         1.779743
 C         2.618963        -1.237426         2.288618
 C         3.815018        -0.864784         1.471445
 C         3.631962         0.400913         0.634794
 O         2.309298         1.011860         0.478114
 C         3.514327        -1.009453         0.003471
 O         2.182594        -1.180780        -0.324618
 H        -0.384902         0.944937         0.205297
 H         0.514642         0.438558        -1.315726
 H        -0.351134        -0.844966        -0.354474
 H         0.716651         0.124137         2.323448
 H         0.546454        -1.564143         1.387283
 H         2.856402        -0.926174         3.325423
 H         2.451071        -2.337170         2.423250
 H         4.891600        -1.113646         1.640704
 H         4.379946         1.163264         0.424705
 H         4.381417        -1.545460        -0.544765
