19
Iteration:  2365
 C         0.259259         0.311465        -0.388332
 C         1.406406        -0.297355         0.418423
 C         1.273021        -1.169492         1.642879
 C         2.621356        -1.050412         2.368090
 C         3.817010        -0.848266         1.476058
 C         3.571220         0.425910         0.648876
 O         2.235805         0.857138         0.811634
 C         3.500844        -0.875800        -0.087322
 O         2.235175        -1.051278        -0.510454
 H        -0.166671         1.213728         0.036705
 H         0.481658         0.576051        -1.391045
 H        -0.556177        -0.452345        -0.554832
 H         0.659009        -0.756727         2.372781
 H         0.949374        -2.156728         1.516664
 H         2.510595        -0.194010         2.886320
 H         2.901835        -1.894391         3.068433
 H         4.834108        -1.197180         1.792700
 H         4.284407         1.216371         0.527797
 H         4.231311        -1.261628        -0.927379
