19
Iteration:  3962charge 0 multiplicity 1
 C         0.286680         0.386065        -0.365775
 C         1.464624        -0.269249         0.406729
 C         1.229456        -1.000072         1.741341
 C         2.591440        -1.021014         2.421615
 C         3.757908        -0.814912         1.467279
 C         3.585835         0.360635         0.523331
 O         2.315076         0.844231         0.685297
 C         3.502077        -0.971647        -0.130001
 O         2.205894        -1.243309        -0.424970
 H        -0.003417         1.255351         0.249318
 H         0.525070         0.735776        -1.423200
 H        -0.511883        -0.374464        -0.418830
 H         0.502302        -0.392110         2.418710
 H         0.747211        -1.947147         1.593334
 H         2.654921        -0.207886         3.184514
 H         2.733031        -1.886467         3.030367
 H         4.692479        -0.829794         2.008463
 H         4.099121         1.347816         0.340796
 H         4.267631        -1.425376        -0.838172
