19
Iteration:  1717charge 0 multiplicity 1
 C         0.132283         0.352309        -0.269620
 C         1.464010        -0.331919         0.359915
 C         1.262616        -1.198216         1.607515
 C         2.617663        -1.198821         2.405438
 C         3.824218        -0.907992         1.407248
 C         3.487773         0.499133         0.699770
 O         2.207683         0.958275         0.631030
 C         3.617465        -0.810324         0.015852
 O         2.301271        -1.087014        -0.485876
 H        -0.248676         1.018644         0.502077
 H         0.596153         1.051262        -0.940344
 H        -0.514218        -0.470109        -0.562005
 H         0.381060        -0.917123         2.178587
 H         1.074563        -2.182907         1.139608
 H         2.684755        -0.298594         3.044342
 H         2.764322        -2.162053         3.020084
 H         4.862414        -1.012481         1.817639
 H         4.234078         1.335927         0.655823
 H         4.205647        -1.212725        -0.807959
