19
Iteration:  4211
 C         0.251916         0.350077        -0.363997
 C         1.472970        -0.201928         0.386962
 C         1.210159        -1.009198         1.797543
 C         2.590542        -1.134003         2.383178
 C         3.857685        -0.767263         1.486920
 C         3.570981         0.379502         0.513581
 O         2.287033         0.975210         0.534836
 C         3.551423        -1.043295        -0.000306
 O         2.159290        -1.248451        -0.381512
 H        -0.267126         0.999175         0.381638
 H         0.647430         0.918927        -1.129265
 H        -0.361531        -0.514618        -0.686873
 H         0.463717        -0.293786         2.337177
 H         0.624116        -1.945384         1.656289
 H         2.497550        -0.389620         3.219041
 H         2.868537        -2.100301         2.759034
 H         4.791035        -0.825354         2.043470
 H         4.401725         1.056950         0.323061
 H         4.181407        -1.484823        -0.720428
