19
Iteration:   634
 C         0.194026         0.040305        -0.379644
 C         1.499948        -0.187736         0.408083
 C         1.301610        -0.933341         1.786636
 C         2.648248        -1.627029         2.193981
 C         3.772809        -0.887115         1.457612
 C         3.479847         0.571581         0.793784
 O         2.110430         1.048156         0.617598
 C         3.651402        -0.665099        -0.019092
 O         2.311385        -1.026915        -0.457035
 H        -0.492791         0.726980         0.145363
 H         0.336880         0.517475        -1.387358
 H        -0.347993        -0.873966        -0.696604
 H         1.005594        -0.240349         2.512236
 H         0.457568        -1.521208         1.775686
 H         2.844152        -1.622202         3.300807
 H         2.573963        -2.758519         1.934001
 H         4.840944        -0.777272         1.910983
 H         4.254805         1.239312         1.009902
 H         4.259727        -0.817620        -0.883400
