19
Iteration:   605charge 0 multiplicity 1
 C         0.149376        -0.010153        -0.420524
 C         1.455688        -0.290871         0.390409
 C         1.262938        -0.969302         1.796022
 C         2.630695        -1.404746         2.207148
 C         3.809228        -0.823344         1.488726
 C         3.594471         0.509354         0.771459
 O         2.162082         0.928216         0.803506
 C         3.602481        -0.726224        -0.012047
 O         2.291276        -0.886643        -0.611391
 H        -0.555616         0.545341         0.218015
 H         0.459591         0.565474        -1.268531
 H        -0.268265        -0.871119        -0.890664
 H         0.906277        -0.052431         2.419689
 H         0.370438        -1.728376         1.990017
 H         2.770667        -1.338517         3.288973
 H         2.657483        -2.430781         1.861164
 H         4.765794        -1.048903         1.785745
 H         4.371171         1.237808         0.767305
 H         4.267162        -1.008610        -0.810607
