19
Iteration:  1705
 C         0.203269         0.361752        -0.189362
 C         1.389976        -0.268953         0.382831
 C         1.342103        -1.250766         1.567573
 C         2.597676        -1.127515         2.331532
 C         3.751823        -0.937125         1.522150
 C         3.572396         0.536540         0.627041
 O         2.162619         0.907554         0.629933
 C         3.612484        -0.822937        -0.033565
 O         2.292715        -1.117944        -0.507126
 H        -0.290972         0.926779         0.577909
 H         0.494963         0.949994        -1.076119
 H        -0.575187        -0.172925        -0.679483
 H         0.546097        -1.009627         2.325828
 H         1.186018        -2.274540         1.250556
 H         2.510767        -0.283338         3.062293
 H         2.753221        -2.044810         3.038523
 H         4.770208        -1.165439         1.992901
 H         4.279054         1.414127         0.745334
 H         4.458036        -0.928912        -0.621648
