19
Iteration:  4496
 C         0.153492         0.206297        -0.304680
 C         1.427224        -0.244075         0.336468
 C         1.236016        -0.767540         1.803847
 C         2.614354        -1.116801         2.406106
 C         3.740547        -0.968263         1.470256
 C         3.619071         0.372860         0.566523
 O         2.290336         0.889043         0.624301
 C         3.593931        -0.939547        -0.025324
 O         2.277795        -1.154933        -0.489476
 H        -0.275787         1.059658         0.180899
 H         0.373380         0.495943        -1.407544
 H        -0.630399        -0.531822        -0.379545
 H         0.689577         0.039701         2.288245
 H         0.519980        -1.532532         1.904378
 H         2.917377        -0.414334         3.279521
 H         2.361328        -2.077811         2.831238
 H         4.758962        -1.313113         1.554218
 H         4.299263         1.206669         0.296133
 H         4.342024        -1.258957        -0.658409
