19
Iteration:   171
 C         0.117359         0.029661        -0.300421
 C         1.461437        -0.229394         0.353810
 C         1.226398        -0.877041         1.818163
 C         2.567654        -1.596316         2.098939
 C         3.729165        -0.802028         1.481097
 C         3.558576         0.556435         0.742046
 O         2.249306         1.016175         0.601741
 C         3.690250        -0.745206        -0.007531
 O         2.328108        -0.981901        -0.438288
 H        -0.510391         0.537557         0.464828
 H         0.254650         0.485994        -1.375280
 H        -0.295570        -1.039630        -0.498820
 H         1.012968        -0.127374         2.592986
 H         0.355948        -1.563837         1.868159
 H         2.790495        -1.551118         3.204044
 H         2.551719        -2.660799         1.785971
 H         4.731606        -0.962840         1.904015
 H         4.281501         1.317906         0.961048
 H         4.438132        -1.062577        -0.672771
