19
Iteration:  2011charge 0 multiplicity 1
 C         0.206257         0.012029        -0.458311
 C         1.435141        -0.137915         0.442036
 C         1.272483        -0.847422         1.784964
 C         2.617306        -1.473664         2.224954
 C         3.753257        -0.850990         1.409798
 C         3.515819         0.509264         0.786564
 O         2.265981         1.053082         0.685578
 C         3.593363        -0.818962        -0.086757
 O         2.252988        -1.059934        -0.379901
 H        -0.637821         0.628726        -0.058302
 H         0.629914         0.316894        -1.398807
 H        -0.108906        -1.066412        -0.717692
 H         0.857799         0.000934         2.475662
 H         0.579352        -1.600141         1.986469
 H         2.790107        -1.565627         3.325181
 H         2.717051        -2.532968         1.749375
 H         4.709519        -1.161189         1.752938
 H         4.314775         1.341999         0.776372
 H         4.177118        -1.006144        -0.927271
