19
Iteration:   474charge 0 multiplicity 1
 C         0.189363         0.099051        -0.381533
 C         1.440478        -0.220943         0.371877
 C         1.285585        -1.097099         1.588224
 C         2.707411        -1.408443         2.327546
 C         3.762419        -0.810911         1.517429
 C         3.542240         0.482634         0.772663
 O         2.208567         0.945819         0.763812
 C         3.531945        -0.744811        -0.023822
 O         2.272261        -0.896636        -0.534779
 H        -0.232985         0.895374         0.235528
 H         0.327733         0.419137        -1.431123
 H        -0.455093        -0.775982        -0.361532
 H         0.474527        -0.607601         2.204987
 H         0.808793        -2.090644         1.267231
 H         2.804873        -1.128589         3.403124
 H         2.799992        -2.426245         2.480308
 H         4.780891        -0.883290         1.716707
 H         4.320165         1.282146         0.658735
 H         4.221181        -1.111143        -0.817280
