19
Iteration:  4987
 C         0.244239         0.149804        -0.290736
 C         1.426539        -0.210182         0.415462
 C         1.150799        -0.805167         1.786100
 C         2.600186        -1.212028         2.287492
 C         3.816914        -0.830230         1.464349
 C         3.671130         0.437069         0.560942
 O         2.316366         0.986049         0.535203
 C         3.552521        -1.000800         0.031008
 O         2.150448        -1.139120        -0.375594
 H        -0.492089         0.600872         0.370671
 H         0.617180         0.752533        -1.168716
 H        -0.152547        -0.794633        -0.693566
 H         0.627499        -0.062528         2.379094
 H         0.548300        -1.788054         1.615269
 H         2.934355        -0.888963         3.259804
 H         2.610817        -2.345158         2.325470
 H         4.791264        -1.091961         1.979698
 H         4.456915         1.133796         0.210753
 H         4.096429        -1.460946        -0.799686
