19
Iteration:  2128charge 0 multiplicity 1
 C         0.224901         0.206308        -0.378445
 C         1.381919        -0.260213         0.401490
 C         1.280623        -1.128395         1.696345
 C         2.654677        -1.050476         2.388101
 C         3.833842        -1.018869         1.492154
 C         3.606985         0.413951         0.711725
 O         2.181599         0.872697         0.829207
 C         3.555991        -0.768710        -0.178038
 O         2.230811        -0.986151        -0.601549
 H        -0.245369         1.075956         0.180497
 H         0.666746         0.568138        -1.291308
 H        -0.423230        -0.657034        -0.816626
 H         0.481974        -0.797449         2.398834
 H         0.904479        -2.198485         1.425530
 H         2.689363        -0.054187         3.007970
 H         2.714972        -1.813592         3.080283
 H         4.749916        -1.291727         1.900158
 H         4.213948         1.388832         0.778323
 H         4.236020        -1.187219        -0.819790
