19
Iteration:   648charge 0 multiplicity 1
 C         0.114188         0.087605        -0.327888
 C         1.373343        -0.200859         0.399660
 C         1.294543        -0.995387         1.726940
 C         2.638841        -1.602633         2.082947
 C         3.815165        -0.833406         1.533415
 C         3.484274         0.523225         0.796497
 O         2.170282         1.113653         0.535034
 C         3.660596        -0.688935        -0.003814
 O         2.368087        -1.059057        -0.345705
 H        -0.406742         0.705595         0.428421
 H         0.423327         0.540386        -1.257431
 H        -0.407854        -0.835662        -0.461311
 H         0.899803        -0.295356         2.530053
 H         0.576519        -1.826512         1.535829
 H         2.663020        -1.597181         3.198987
 H         2.733523        -2.660850         1.630722
 H         4.710208        -1.002446         1.994216
 H         4.164536         1.381784         0.666160
 H         4.515700        -0.804949        -0.700202
