19
Iteration:  2626charge 0 multiplicity 1
 C         0.164075         0.252197        -0.228975
 C         1.421271        -0.282395         0.332933
 C         1.247423        -1.042658         1.685596
 C         2.596055        -1.191090         2.435445
 C         3.808078        -0.886705         1.465242
 C         3.546065         0.420317         0.696491
 O         2.293271         0.899413         0.554040
 C         3.625679        -0.824958        -0.082954
 O         2.239240        -1.103748        -0.506713
 H        -0.276806         0.796146         0.519418
 H         0.488362         1.090934        -0.830297
 H        -0.339143        -0.484681        -0.727728
 H         0.465491        -0.425768         2.222338
 H         0.840849        -2.076891         1.532200
 H         2.666629        -0.336464         3.220068
 H         2.520809        -2.087947         3.015774
 H         4.823765        -0.743812         1.917512
 H         4.290830         1.292076         0.690192
 H         4.154197        -1.156839        -0.884196
