19
Iteration:  2430charge 0 multiplicity 1
 C         0.111875         0.079590        -0.261185
 C         1.439416        -0.156464         0.376545
 C         1.282013        -0.848226         1.717265
 C         2.608113        -1.395485         2.355075
 C         3.735815        -0.863104         1.514340
 C         3.601591         0.499329         0.741040
 O         2.329434         1.046291         0.500987
 C         3.539367        -0.872031        -0.056121
 O         2.276841        -1.070777        -0.455409
 H        -0.562872         0.421936         0.518767
 H         0.155539         0.552289        -1.191351
 H        -0.151731        -0.982169        -0.540772
 H         0.693439        -0.163902         2.223818
 H         0.697287        -1.676441         1.464169
 H         2.743055        -1.272068         3.385482
 H         2.464416        -2.473677         2.121183
 H         4.798360        -1.205147         1.740354
 H         4.350603         1.243796         0.748536
 H         4.353886        -1.419563        -0.758349
