19
Iteration:  2207
 C         0.044192         0.086043        -0.286844
 C         1.493702        -0.215819         0.355536
 C         1.259062        -0.864375         1.747737
 C         2.591219        -1.456450         2.309696
 C         3.759046        -0.914327         1.460905
 C         3.576956         0.506965         0.753290
 O         2.265658         1.054860         0.561107
 C         3.640456        -0.830635        -0.016894
 O         2.293127        -1.076283        -0.500029
 H        -0.403424         0.867882         0.374235
 H         0.332128         0.679772        -1.270112
 H        -0.425454        -0.915910        -0.449934
 H         0.724816        -0.052595         2.333106
 H         0.585552        -1.737603         1.613424
 H         2.768452        -0.902294         3.306058
 H         2.529497        -2.522051         2.513490
 H         4.869024        -1.004530         1.734639
 H         4.281125         1.266790         0.823407
 H         4.480664        -1.127641        -0.755442
