19
Iteration:  4243
 C         0.142602         0.267929        -0.367709
 C         1.452810        -0.191959         0.341371
 C         1.269392        -0.895449         1.839888
 C         2.656614        -1.025272         2.502325
 C         3.766288        -0.900829         1.493381
 C         3.632061         0.356970         0.662076
 O         2.309080         0.889785         0.515648
 C         3.517183        -1.024972        -0.017532
 O         2.188893        -1.148767        -0.575538
 H        -0.514178         0.884997         0.303308
 H         0.389105         0.890050        -1.199898
 H        -0.495355        -0.576568        -0.712946
 H         0.507526        -0.201538         2.314358
 H         0.918874        -1.962649         1.735685
 H         2.778041        -0.385165         3.356682
 H         2.765167        -1.966940         3.025320
 H         4.751969        -1.267160         1.811088
 H         4.468976         1.043573         0.619964
 H         4.275840        -1.413060        -0.664052
