19
Iteration:  4902
 C         0.156653         0.196454        -0.212551
 C         1.431279        -0.222266         0.337095
 C         1.194501        -0.969451         1.700851
 C         2.574302        -1.159925         2.385432
 C         3.744193        -0.711656         1.496911
 C         3.706238         0.396881         0.573697
 O         2.433452         0.997927         0.528622
 C         3.505743        -0.991622         0.025260
 O         2.187105        -1.167815        -0.451884
 H        -0.063641         1.135077         0.219266
 H         0.196086         0.495572        -1.297293
 H        -0.600533        -0.549923        -0.148189
 H         0.487694        -0.444872         2.449080
 H         0.690648        -1.867387         1.611249
 H         2.737105        -0.678294         3.414174
 H         2.572713        -2.300187         2.462634
 H         4.670662        -1.194889         1.911832
 H         4.451368         1.116137         0.174071
 H         4.236123        -1.507876        -0.623149
