19
Iteration:  2591
 C         0.194090         0.208596        -0.324195
 C         1.440096        -0.253033         0.350954
 C         1.288946        -1.129883         1.604687
 C         2.565110        -1.078313         2.472692
 C         3.802660        -0.806399         1.480229
 C         3.611631         0.421327         0.589913
 O         2.352434         0.923570         0.774342
 C         3.494922        -0.960314        -0.066436
 O         2.176547        -0.975886        -0.542161
 H        -0.406883         0.843549         0.300381
 H         0.432703         0.532875        -1.278688
 H        -0.583869        -0.599932        -0.407319
 H         0.400817        -1.025044         2.362335
 H         1.230601        -2.212224         1.301057
 H         2.684688        -0.234667         3.228471
 H         2.631353        -2.006326         2.977999
 H         4.819960        -0.876437         1.922268
 H         4.388002         1.139064         0.373653
 H         4.226991        -1.598004        -0.704380
