19
Iteration:  2677
 C         0.155668         0.011435        -0.455482
 C         1.410733        -0.157479         0.337998
 C         1.274564        -0.809092         1.832319
 C         2.642677        -1.406939         2.269984
 C         3.790504        -0.774352         1.496762
 C         3.602568         0.399174         0.708627
 O         2.275849         1.037337         0.615988
 C         3.583596        -0.899565        -0.052179
 O         2.212685        -1.030047        -0.369579
 H        -0.436013         0.636726         0.281157
 H         0.312578         0.670961        -1.296036
 H        -0.300757        -1.058286        -0.558251
 H         0.815775        -0.037114         2.524150
 H         0.450408        -1.518248         1.776094
 H         2.852402        -1.401589         3.345738
 H         2.613323        -2.493718         2.061588
 H         4.736847        -1.168030         1.781993
 H         4.476704         1.020031         0.475535
 H         4.196137        -1.171713        -0.901709
