19
Iteration:  4384charge 0 multiplicity 1
 C         0.106185         0.068184        -0.424286
 C         1.519542        -0.154075         0.365877
 C         1.334795        -0.703915         1.864652
 C         2.608679        -1.301970         2.443934
 C         3.669413        -0.859073         1.546389
 C         3.618513         0.363167         0.646688
 O         2.385425         0.976526         0.466317
 C         3.511870        -0.938077        -0.074872
 O         2.174907        -1.092394        -0.456042
 H        -0.573529         0.795801         0.177756
 H         0.338240         0.459453        -1.389148
 H        -0.408209        -0.951033        -0.502228
 H         1.130170         0.130763         2.469221
 H         0.499009        -1.512187         2.059242
 H         2.907606        -0.962936         3.442309
 H         2.529679        -2.460282         2.585420
 H         4.645607        -1.051515         2.059462
 H         4.428802         1.080008         0.525910
 H         4.168464        -1.417473        -0.934356
