19
Iteration:  2590charge 0 multiplicity 1
 C         0.198336         0.205442        -0.325670
 C         1.443412        -0.260783         0.353876
 C         1.297741        -1.126439         1.607148
 C         2.558207        -1.079010         2.471621
 C         3.805610        -0.809610         1.492216
 C         3.617362         0.426566         0.589937
 O         2.351108         0.925036         0.773803
 C         3.497573        -0.960568        -0.078235
 O         2.166649        -0.970466        -0.542344
 H        -0.439271         0.854294         0.294213
 H         0.444337         0.526089        -1.300208
 H        -0.606016        -0.610197        -0.385418
 H         0.405178        -1.026453         2.366406
 H         1.209444        -2.201895         1.284761
 H         2.657445        -0.249810         3.209784
 H         2.626656        -2.009116         3.008701
 H         4.826941        -0.873355         1.916079
 H         4.385849         1.122260         0.371773
 H         4.244294        -1.602203        -0.715195
