19
Iteration:   423charge 0 multiplicity 1
 C         0.157032         0.131743        -0.261232
 C         1.456897        -0.225037         0.406526
 C         1.300218        -0.940136         1.724364
 C         2.578287        -1.605166         2.075364
 C         3.776972        -0.811169         1.498972
 C         3.509244         0.578798         0.806503
 O         2.144589         0.988286         0.537285
 C         3.751037        -0.659835        -0.028244
 O         2.311842        -1.097575        -0.356007
 H        -0.552584         0.586663         0.529650
 H         0.286830         0.799429        -1.111017
 H        -0.265294        -0.770946        -0.726979
 H         0.929047        -0.257222         2.451358
 H         0.536323        -1.686783         1.658002
 H         2.569321        -1.769224         3.179874
 H         2.583205        -2.710840         1.728171
 H         4.725906        -0.827490         1.884884
 H         4.175454         1.435062         0.844997
 H         4.412123        -0.732404        -0.918456
