19
Iteration:  1828
 C         0.103009         0.139265        -0.313297
 C         1.376503        -0.208507         0.432421
 C         1.236314        -0.897142         1.750613
 C         2.671526        -1.596168         2.132548
 C         3.755063        -0.680308         1.559454
 C         3.546617         0.567859         0.684440
 O         2.267094         1.016940         0.553976
 C         3.679106        -0.812163         0.047441
 O         2.301176        -1.158484        -0.399682
 H        -0.510005         0.827492         0.290147
 H         0.323486         0.818985        -1.112645
 H        -0.572069        -0.622520        -0.772956
 H         1.016014        -0.058675         2.475851
 H         0.338739        -1.609124         1.557221
 H         2.638608        -1.830222         3.224062
 H         2.854385        -2.628236         1.692769
 H         4.714543        -0.736565         1.978526
 H         4.324098         1.278849         0.480595
 H         4.422268        -1.381743        -0.715167
