19
Iteration:  1436
 C         0.119000         0.211675        -0.271235
 C         1.454423        -0.294941         0.396751
 C         1.289787        -1.092699         1.654499
 C         2.609464        -1.121229         2.370098
 C         3.738951        -0.910211         1.439426
 C         3.556928         0.507509         0.736136
 O         2.252519         0.869300         0.728903
 C         3.578534        -0.865378        -0.122156
 O         2.311048        -0.994112        -0.552658
 H        -0.336977         1.052597         0.247074
 H         0.373480         0.746973        -1.241739
 H        -0.526372        -0.617506        -0.411860
 H         0.359955        -0.855733         2.171277
 H         1.132984        -2.192076         1.300674
 H         2.678346        -0.291568         3.088905
 H         2.753689        -2.103836         2.986584
 H         4.864045        -1.166573         1.640124
 H         4.280709         1.284978         0.865192
 H         4.295714        -1.133841        -0.822608
