19
Iteration:  1988
 C         0.181528         0.030340        -0.360312
 C         1.429377        -0.158249         0.404130
 C         1.201005        -0.930425         1.709041
 C         2.605799        -1.392279         2.290861
 C         3.809320        -0.934752         1.434696
 C         3.600736         0.471651         0.720254
 O         2.243681         1.000521         0.663771
 C         3.664069        -0.716234        -0.068033
 O         2.220263        -0.988976        -0.455612
 H        -0.476983         0.775034         0.190350
 H         0.515950         0.356915        -1.340436
 H        -0.242286        -1.033353        -0.575209
 H         0.666227        -0.405784         2.584585
 H         0.653715        -1.827845         1.670644
 H         2.646120        -0.932440         3.322056
 H         2.643674        -2.518673         2.492991
 H         4.742350        -1.141265         1.881297
 H         4.335707         1.294429         0.777962
 H         4.247642        -1.237377        -0.818739
