19
Iteration:  1615
 C         0.171477         0.179059        -0.328893
 C         1.457142        -0.220015         0.379800
 C         1.201528        -0.943593         1.705458
 C         2.654081        -1.439960         2.290002
 C         3.798967        -0.753260         1.452425
 C         3.566888         0.555638         0.686611
 O         2.203014         0.919385         0.656347
 C         3.592522        -0.846501         0.036420
 O         2.274803        -1.075507        -0.480480
 H        -0.314632         0.873915         0.360580
 H         0.492423         0.451571        -1.332557
 H        -0.285079        -0.774171        -0.520277
 H         0.862160        -0.031011         2.350445
 H         0.489938        -1.729633         1.621769
 H         2.769047        -1.346273         3.410482
 H         2.804583        -2.573773         2.247505
 H         4.737988        -1.048630         1.841657
 H         4.228971         1.344762         0.435266
 H         4.313130        -1.097940        -0.803374
