19
Iteration:  4398charge 0 multiplicity 1
 C         0.153522         0.072459        -0.354565
 C         1.387858        -0.250386         0.355515
 C         1.267743        -0.651610         1.937724
 C         2.581114        -1.331728         2.504141
 C         3.786530        -0.889191         1.501866
 C         3.613723         0.342634         0.596888
 O         2.322182         0.976952         0.460744
 C         3.583851        -0.962893        -0.037109
 O         2.239166        -1.035389        -0.544042
 H        -0.510593         0.680602         0.230215
 H         0.316233         0.588748        -1.334263
 H        -0.413670        -0.816559        -0.604431
 H         0.980328         0.448533         2.401303
 H         0.312835        -1.136994         2.034320
 H         2.644525        -0.980143         3.578740
 H         2.542310        -2.403216         2.451157
 H         4.842037        -1.078606         1.698666
 H         4.483691         0.976760         0.488401
 H         4.388332        -1.352844        -0.586721
