19
Iteration:  4492charge 0 multiplicity 1
 C         0.182071         0.221013        -0.342287
 C         1.436597        -0.265416         0.340867
 C         1.258577        -0.760793         1.802012
 C         2.602275        -1.130157         2.436259
 C         3.751245        -0.957830         1.494099
 C         3.636051         0.400616         0.567821
 O         2.258901         0.920884         0.624128
 C         3.588674        -0.927568        -0.040509
 O         2.231917        -1.189357        -0.505640
 H        -0.186480         1.084095         0.293643
 H         0.419546         0.549860        -1.353512
 H        -0.604763        -0.573923        -0.351033
 H         0.846102         0.036845         2.393095
 H         0.486436        -1.652047         1.898544
 H         2.798671        -0.512908         3.268079
 H         2.419162        -2.182939         2.831371
 H         4.795156        -1.271658         1.587974
 H         4.356136         1.124746         0.212142
 H         4.408623        -1.327774        -0.692199
