19
Iteration:  1748
 C         0.157618         0.093122        -0.318432
 C         1.473426        -0.238854         0.400733
 C         1.282763        -0.996431         1.713170
 C         2.623871        -1.294913         2.333105
 C         3.767799        -0.809102         1.489795
 C         3.586142         0.497022         0.675826
 O         2.302072         0.922642         0.771292
 C         3.557090        -0.852310        -0.006913
 O         2.227433        -0.950616        -0.620038
 H        -0.663289         0.678437         0.078212
 H         0.498175         0.470275        -1.320896
 H        -0.315610        -0.857773        -0.567364
 H         0.406669        -0.311748         2.187615
 H         0.683728        -1.886093         1.475700
 H         2.568302        -0.893474         3.337245
 H         2.612392        -2.447406         2.360338
 H         4.794948        -1.128522         1.860074
 H         4.402410         1.265045         0.514718
 H         4.217600        -1.271205        -0.703472
