19
Iteration:  3457
 C         0.164472         0.115547        -0.255091
 C         1.500961        -0.249513         0.356361
 C         1.252854        -0.829808         1.784777
 C         2.584622        -1.144649         2.421423
 C         3.752401        -0.905705         1.423842
 C         3.584759         0.415266         0.702562
 O         2.280848         0.909498         0.555012
 C         3.614492        -0.890254        -0.072487
 O         2.243954        -1.097039        -0.516776
 H        -0.333860         1.011863         0.069596
 H         0.271096         0.288250        -1.332427
 H        -0.694248        -0.513801        -0.149433
 H         0.586502        -0.069997         2.305901
 H         0.709181        -1.703778         1.615209
 H         2.653652        -0.525263         3.319549
 H         2.622124        -2.188193         2.841874
 H         4.690731        -1.297104         1.802338
 H         4.418725         1.126023         0.537889
 H         4.286339        -1.316372        -0.877381
