19
Iteration:  1849
 C         0.212829         0.165324        -0.317579
 C         1.398523        -0.212792         0.349393
 C         1.317466        -0.949367         1.743205
 C         2.614105        -1.405377         2.233106
 C         3.782788        -0.847580         1.464802
 C         3.525477         0.476538         0.746264
 O         2.221092         0.968054         0.565837
 C         3.631400        -0.736882         0.011640
 O         2.266697        -1.071269        -0.401332
 H        -0.466803         0.651290         0.382396
 H         0.250596         0.631495        -1.244397
 H        -0.204171        -0.841433        -0.546598
 H         0.660940        -0.294778         2.422762
 H         0.697176        -1.892904         1.547945
 H         2.688194        -1.248411         3.310664
 H         2.540058        -2.543087         2.107768
 H         4.754779        -0.955389         1.847911
 H         4.274407         1.239138         0.755181
 H         4.268613        -1.022361        -0.899116
