19
Iteration:   458charge 0 multiplicity 1
 C         0.134967         0.194399        -0.302899
 C         1.454002        -0.288139         0.340734
 C         1.324856        -1.039919         1.678734
 C         2.616494        -1.484281         2.284128
 C         3.814710        -0.746805         1.516488
 C         3.498232         0.551177         0.752594
 O         2.134414         0.916989         0.715467
 C         3.660370        -0.788803         0.002797
 O         2.303679        -0.987270        -0.604052
 H        -0.394939         0.977917         0.273819
 H         0.499968         0.632952        -1.229613
 H        -0.521742        -0.691444        -0.433155
 H         0.978804        -0.299312         2.362954
 H         0.664480        -1.870180         1.596746
 H         2.483937        -1.253580         3.334190
 H         2.855859        -2.585443         2.028736
 H         4.819420        -1.090102         2.031519
 H         4.114027         1.407416         0.694866
 H         4.502058        -0.928354        -0.630272
