19
Iteration:  3974
 C         0.348624         0.379641        -0.324827
 C         1.418863        -0.315903         0.341278
 C         1.223389        -1.037501         1.731767
 C         2.637955        -1.019954         2.465623
 C         3.788575        -0.765001         1.441617
 C         3.588773         0.423517         0.560643
 O         2.220567         0.824217         0.609809
 C         3.535164        -1.021549         0.016859
 O         2.151789        -1.183581        -0.467183
 H         0.185076         1.279533         0.324838
 H         0.716585         0.765315        -1.279179
 H        -0.687811        -0.036102        -0.389542
 H         0.509532        -0.318386         2.293943
 H         0.841801        -2.065442         1.673946
 H         2.569324        -0.167130         3.139584
 H         2.839568        -1.943502         2.939956
 H         4.816203        -1.108251         1.600773
 H         4.542645         1.018685         0.395238
 H         4.263040        -1.462963        -0.693117
