19
Iteration:  4801charge 0 multiplicity 1
 C         0.229477         0.227507        -0.283239
 C         1.458136        -0.204960         0.420339
 C         1.236665        -0.885974         1.697650
 C         2.646271        -1.239015         2.429436
 C         3.782683        -0.891733         1.480530
 C         3.638255         0.426322         0.596750
 O         2.345127         0.982775         0.398463
 C         3.471315        -0.922890         0.030021
 O         2.162666        -1.135484        -0.335855
 H        -0.631053         0.688186         0.269009
 H         0.506089         0.827802        -1.099341
 H        -0.325489        -0.539218        -0.877464
 H         0.605342        -0.179503         2.232855
 H         0.559721        -1.761227         1.355017
 H         2.685174        -0.712897         3.387055
 H         2.750243        -2.437573         2.678155
 H         4.768451        -1.203174         1.789324
 H         4.453310         1.133091         0.609106
 H         4.010244        -1.537383        -0.717830
