19
Iteration:  3478
 C         0.160707         0.184200        -0.295793
 C         1.452209        -0.278428         0.333889
 C         1.252110        -1.030111         1.689334
 C         2.634826        -1.018294         2.461573
 C         3.780101        -0.926750         1.500015
 C         3.625815         0.405440         0.596830
 O         2.308435         0.915260         0.647733
 C         3.480823        -0.960891        -0.019261
 O         2.246308        -1.055532        -0.567448
 H        -0.168340         1.101142         0.182563
 H         0.097894         0.473367        -1.378223
 H        -0.721587        -0.433385        -0.150263
 H         0.649986        -0.308484         2.298939
 H         0.685544        -1.896870         1.597115
 H         2.668560        -0.138335         3.161903
 H         2.908767        -1.932311         3.050548
 H         4.764418        -1.021354         1.952811
 H         4.389755         1.241748         0.578696
 H         4.269912        -1.406977        -0.698811
