19
Iteration:  2938
 C         0.254318         0.062285        -0.424192
 C         1.408220        -0.149217         0.429305
 C         1.286715        -0.716872         1.920204
 C         2.645237        -1.487289         2.190788
 C         3.851523        -0.767216         1.571139
 C         3.543312         0.462221         0.677988
 O         2.230018         0.999069         0.527492
 C         3.505949        -0.835083        -0.025630
 O         2.220632        -1.176250        -0.420511
 H        -0.340231         0.934096        -0.092860
 H         0.634249         0.222541        -1.537840
 H        -0.556448        -0.673403        -0.359086
 H         0.966804         0.196133         2.526936
 H         0.496771        -1.496687         2.222040
 H         2.834677        -1.845763         3.168515
 H         2.452636        -2.433530         1.493723
 H         4.762607        -1.143277         2.124502
 H         4.253713         1.232529         0.475315
 H         4.397358        -1.035946        -0.719762
