19
Iteration:  1022
 C         0.085776         0.240826        -0.217511
 C         1.469568        -0.327703         0.292913
 C         1.358979        -1.177773         1.609058
 C         2.596793        -1.307932         2.439238
 C         3.734284        -0.809764         1.516467
 C         3.556152         0.488785         0.713888
 O         2.172196         0.913167         0.661930
 C         3.592501        -0.842441         0.018086
 O         2.349255        -0.895220        -0.651995
 H        -0.229290         0.879518         0.656765
 H         0.311991         0.817388        -1.127991
 H        -0.743472        -0.469613        -0.334966
 H         0.643453        -0.584704         2.227065
 H         1.066255        -2.136499         1.311395
 H         2.527481        -0.814744         3.390692
 H         2.963038        -2.267480         2.557728
 H         4.701130        -1.008925         1.935228
 H         4.303657         1.308444         0.473917
 H         4.440187        -1.231619        -0.635617
