19
Iteration:  1470charge 0 multiplicity 1
 C         0.209644         0.365715        -0.310785
 C         1.383082        -0.341953         0.377970
 C         1.305970        -1.213289         1.633780
 C         2.639430        -1.209479         2.390331
 C         3.801752        -0.696634         1.508380
 C         3.518958         0.499651         0.594539
 O         2.267649         0.901217         0.733835
 C         3.539559        -0.881856        -0.015954
 O         2.253329        -1.070884        -0.505815
 H        -0.327121         0.887404         0.438766
 H         0.704784         0.839117        -1.148206
 H        -0.484349        -0.341367        -0.779782
 H         0.442433        -0.966051         2.312170
 H         1.149268        -2.195222         1.135720
 H         2.561182        -0.629459         3.349460
 H         2.711571        -2.340344         2.626427
 H         4.842541        -1.080343         1.841637
 H         4.198715         1.337020         0.341758
 H         4.141192        -1.117146        -0.815202
