19
Iteration:  4752charge 0 multiplicity 1
 C         0.175199         0.121961        -0.299700
 C         1.429636        -0.279284         0.334042
 C         1.253056        -0.697908         1.730656
 C         2.551929        -1.227278         2.326236
 C         3.838009        -0.875876         1.475889
 C         3.626510         0.397760         0.657250
 O         2.345894         0.931146         0.575959
 C         3.604623        -0.998570        -0.010671
 O         2.160505        -1.075187        -0.415582
 H        -0.251088         0.779453         0.440562
 H         0.335397         0.663397        -1.283022
 H        -0.589726        -0.628653        -0.445737
 H         0.807078         0.193855         2.209203
 H         0.541333        -1.482898         1.849908
 H         2.549639        -0.810070         3.379171
 H         2.470832        -2.294532         2.406753
 H         4.815190        -1.199142         1.882284
 H         4.358958         1.148930         0.297038
 H         4.173987        -1.414157        -0.782025
