19
Iteration:  1878
 C         0.175285         0.105891        -0.379355
 C         1.399552        -0.240674         0.364641
 C         1.244789        -1.058156         1.761208
 C         2.611644        -1.217080         2.436349
 C         3.768465        -0.891054         1.444030
 C         3.645991         0.462931         0.716244
 O         2.202667         0.929779         0.786671
 C         3.580418        -0.846814        -0.076305
 O         2.300287        -0.919699        -0.681101
 H        -0.573225         0.753916         0.128197
 H         0.283866         0.650596        -1.346078
 H        -0.303668        -0.897397        -0.498335
 H         0.741523        -0.269554         2.423338
 H         0.820363        -2.043066         1.683555
 H         2.654570        -0.658305         3.373986
 H         2.749524        -2.248006         2.827618
 H         4.790098        -1.261159         1.602366
 H         4.373557         1.223924         0.779465
 H         4.359041        -1.242574        -0.782839
