19
Iteration:  4207charge 0 multiplicity 1
 C         0.215428         0.321380        -0.344835
 C         1.454995        -0.199029         0.380416
 C         1.166843        -0.982002         1.774706
 C         2.599785        -1.117724         2.372448
 C         3.847511        -0.751771         1.494056
 C         3.603294         0.357292         0.507119
 O         2.321698         0.990402         0.566888
 C         3.545795        -1.066130         0.009587
 O         2.173394        -1.249116        -0.369470
 H        -0.285896         1.000816         0.315671
 H         0.589684         0.885440        -1.304101
 H        -0.335353        -0.543697        -0.671268
 H         0.560645        -0.431482         2.428901
 H         0.529538        -1.920410         1.522709
 H         2.666287        -0.407175         3.139127
 H         2.912560        -2.163095         2.598492
 H         4.756933        -0.874842         2.084021
 H         4.295288         1.189754         0.260621
 H         4.241296        -1.403222        -0.767231
