19
Iteration:  3485charge 0 multiplicity 1
 C         0.126087         0.217816        -0.301580
 C         1.467386        -0.252597         0.327419
 C         1.267799        -1.028491         1.723973
 C         2.641432        -1.007662         2.466280
 C         3.767049        -0.840614         1.474930
 C         3.596752         0.356023         0.628775
 O         2.311240         0.904760         0.659841
 C         3.545806        -0.980240        -0.027870
 O         2.232929        -1.060337        -0.562373
 H        -0.212997         1.141755         0.229896
 H         0.324479         0.452455        -1.436617
 H        -0.744498        -0.501890        -0.150901
 H         0.492647        -0.487914         2.223013
 H         0.853444        -2.110971         1.465137
 H         2.514826        -0.192757         3.207235
 H         2.744413        -1.911198         3.111447
 H         4.786983        -1.155915         1.838387
 H         4.466635         1.027794         0.311274
 H         4.180316        -1.401251        -0.778293
