19
Iteration:  3637charge 0 multiplicity 1
 C         0.134846         0.183506        -0.299647
 C         1.465106        -0.252396         0.358987
 C         1.225916        -0.660238         1.877873
 C         2.562787        -1.441363         2.212985
 C         3.805858        -0.760962         1.472222
 C         3.608172         0.463668         0.606814
 O         2.232261         0.883396         0.482681
 C         3.656535        -0.915818         0.044735
 O         2.283683        -1.181181        -0.377340
 H        -0.239970         1.016615         0.262708
 H         0.315105         0.540596        -1.387737
 H        -0.561649        -0.687808        -0.268403
 H         1.121004         0.184161         2.501119
 H         0.247512        -1.307604         2.027738
 H         2.639810        -1.424058         3.314613
 H         2.366241        -2.469733         1.898470
 H         4.789048        -0.746194         2.019463
 H         4.210095         1.426143         0.441876
 H         4.408112        -1.227862        -0.700234
