19
Iteration:  4463
 C         0.209862         0.284537        -0.396189
 C         1.426614        -0.166492         0.455023
 C         1.239385        -0.877990         1.796601
 C         2.663493        -1.266426         2.358272
 C         3.724717        -0.759013         1.533445
 C         3.601821         0.391580         0.560342
 O         2.316552         0.926956         0.426864
 C         3.540045        -1.020287         0.026536
 O         2.152635        -1.145069        -0.335469
 H        -0.334117         1.039851         0.123300
 H         0.769680         0.728970        -1.303946
 H        -0.299728        -0.633890        -0.620877
 H         0.785544        -0.290753         2.609163
 H         0.822380        -1.827921         1.598674
 H         2.778929        -0.930022         3.456529
 H         2.706546        -2.366155         2.362712
 H         4.796615        -0.911828         1.599514
 H         4.438661         1.077077         0.365104
 H         4.207919        -1.482435        -0.574916
