19
Iteration:   558
 C         0.171484         0.234659        -0.224528
 C         1.434894        -0.288232         0.401540
 C         1.242052        -1.237624         1.574764
 C         2.652702        -1.328947         2.360067
 C         3.790006        -0.788367         1.494369
 C         3.513314         0.560762         0.799149
 O         2.207946         0.967526         0.600675
 C         3.647509        -0.804403        -0.023455
 O         2.266398        -0.981804        -0.555769
 H        -0.440416         0.611363         0.594164
 H         0.515316         1.070770        -0.914088
 H        -0.412936        -0.518901        -0.824341
 H         0.334472        -1.135355         2.180867
 H         1.206370        -2.243413         1.163131
 H         2.587362        -0.642662         3.254278
 H         2.737624        -2.491227         2.549083
 H         4.914050        -1.007653         1.913871
 H         4.223659         1.411667         0.684059
 H         4.376650        -1.050488        -0.818281
