19
Iteration:  3245charge 0 multiplicity 1
 C         0.091243         0.141508        -0.288926
 C         1.431507        -0.158337         0.346520
 C         1.254252        -0.975126         1.639770
 C         2.623564        -1.077334         2.536361
 C         3.743008        -0.894083         1.479798
 C         3.624802         0.391400         0.634385
 O         2.339807         1.010786         0.587905
 C         3.516396        -0.971825        -0.005130
 O         2.259388        -1.081788        -0.542054
 H        -0.470026         0.809973         0.441714
 H         0.291492         0.586316        -1.224909
 H        -0.450817        -0.839541        -0.352506
 H         0.446233        -0.750708         2.372470
 H         1.135387        -2.048051         1.347831
 H         2.869039        -0.308020         3.282432
 H         2.582945        -2.102313         3.069955
 H         4.726195        -1.345103         1.555770
 H         4.551896         0.941984         0.433554
 H         4.370226        -1.331200        -0.692346
