19
Iteration:   805charge 0 multiplicity 1
 C         0.132336         0.152757        -0.237987
 C         1.450274        -0.256436         0.353717
 C         1.276123        -1.197400         1.582944
 C         2.621718        -1.340386         2.321921
 C         3.755140        -0.738733         1.532915
 C         3.565839         0.505295         0.741191
 O         2.245552         0.973762         0.685970
 C         3.593356        -0.804991        -0.059418
 O         2.313442        -0.947894        -0.570386
 H        -0.389868         0.870076         0.389766
 H         0.271409         0.870029        -1.059239
 H        -0.461997        -0.784029        -0.235833
 H         0.417872        -0.793060         2.200118
 H         0.881549        -2.184711         1.142735
 H         2.391489        -0.945239         3.366300
 H         2.888363        -2.440928         2.435946
 H         4.760796        -1.030027         2.041067
 H         4.217575         1.305611         0.751129
 H         4.402580        -1.170273        -0.624002
