19
Iteration:   286charge 0 multiplicity 1
 C         0.016110         0.249208        -0.195742
 C         1.467688        -0.254478         0.341878
 C         1.306747        -1.238401         1.547786
 C         2.587699        -1.112842         2.363174
 C         3.784193        -0.938132         1.466327
 C         3.605219         0.425264         0.811325
 O         2.205446         0.829669         0.756036
 C         3.652800        -0.724887        -0.108828
 O         2.335675        -0.930192        -0.647624
 H        -0.281716         0.964383         0.534129
 H         0.190180         0.638669        -1.171740
 H        -0.576961        -0.670455        -0.128208
 H         0.364353        -1.102568         2.189367
 H         1.197650        -2.296540         1.189558
 H         2.471364        -0.170844         3.036410
 H         2.686832        -1.906472         3.153856
 H         4.802511        -1.154010         2.009835
 H         4.208909         1.267122         0.771556
 H         4.294455        -0.885921        -0.951345
