19
Iteration:  4647
 C         0.153897         0.159132        -0.259570
 C         1.500870        -0.113839         0.393964
 C         1.260061        -0.825826         1.777983
 C         2.592823        -1.252056         2.408479
 C         3.725031        -0.899015         1.493422
 C         3.634378         0.385567         0.642742
 O         2.308577         1.007574         0.445307
 C         3.529431        -1.083241         0.007742
 O         2.218794        -1.092929        -0.474149
 H        -0.448598         0.977732         0.107364
 H         0.419720         0.639901        -1.250898
 H        -0.360951        -0.765530        -0.491610
 H         0.749326        -0.034036         2.283665
 H         0.593609        -1.785101         1.591478
 H         2.733921        -0.585379         3.196234
 H         2.742104        -2.252299         2.885273
 H         4.743241        -0.907942         1.885627
 H         4.466700         1.106452         0.522599
 H         4.222338        -1.534027        -0.763703
