19
Iteration:   396charge 0 multiplicity 1
 C         0.121766         0.003234        -0.414376
 C         1.432918        -0.151301         0.378714
 C         1.342804        -0.949273         1.846275
 C         2.661358        -1.602102         2.168216
 C         3.680002        -0.752339         1.533662
 C         3.550779         0.535159         0.779015
 O         2.237888         1.058683         0.683918
 C         3.633417        -0.824832         0.008147
 O         2.274194        -0.937879        -0.523280
 H        -0.732121         0.234314         0.197677
 H         0.010559         0.658095        -1.319523
 H        -0.128038        -1.010458        -0.810201
 H         1.115201        -0.133523         2.624986
 H         0.511564        -1.726284         1.856820
 H         2.758087        -1.948833         3.296036
 H         2.728680        -2.477994         1.487923
 H         4.862827        -0.919391         1.619065
 H         4.294243         1.336588         0.709131
 H         4.366675        -1.088480        -0.736108
