19
Iteration:  2309charge 0 multiplicity 1
 C         0.101873         0.136923        -0.223581
 C         1.476284        -0.253989         0.302708
 C         1.217550        -0.940859         1.691929
 C         2.570955        -1.303117         2.397971
 C         3.764051        -0.831167         1.557053
 C         3.618768         0.475441         0.625256
 O         2.278950         0.949042         0.602666
 C         3.588580        -0.931713         0.044723
 O         2.314672        -0.971730        -0.625799
 H        -0.277489         0.586597         0.700638
 H         0.186306         0.727614        -1.103558
 H        -0.507666        -0.781389        -0.251959
 H         0.660785        -0.301909         2.303695
 H         0.652566        -1.763022         1.420818
 H         2.621729        -0.877147         3.325449
 H         2.727724        -2.406268         2.612351
 H         4.723010        -1.053159         1.947779
 H         4.441202         1.278354         0.432863
 H         4.277868        -1.315802        -0.693988
