19
Iteration:   465charge 0 multiplicity 1
 C         0.189827         0.149792        -0.326458
 C         1.482359        -0.265526         0.308842
 C         1.348447        -1.080012         1.614973
 C         2.639320        -1.445578         2.330161
 C         3.814240        -0.771669         1.544525
 C         3.488543         0.526679         0.742113
 O         2.168412         0.908277         0.742675
 C         3.585421        -0.790659        -0.010484
 O         2.261733        -0.916917        -0.542160
 H        -0.417424         0.950468         0.201842
 H         0.318610         0.516761        -1.357460
 H        -0.529046        -0.665145        -0.441940
 H         0.816519        -0.370689         2.307951
 H         0.650119        -1.937306         1.391484
 H         2.753467        -1.143667         3.418065
 H         2.785375        -2.545448         2.106291
 H         4.699897        -1.026673         1.906193
 H         4.149541         1.388285         0.682482
 H         4.370410        -0.956206        -0.778382
