19
Iteration:  4033
 C         0.089829         0.019325        -0.272962
 C         1.494209        -0.188826         0.391624
 C         1.261157        -0.809826         1.785327
 C         2.512214        -1.038567         2.373407
 C         3.729901        -0.951577         1.455911
 C         3.694435         0.339579         0.597933
 O         2.410555         0.965458         0.553038
 C         3.570834        -0.946520        -0.004250
 O         2.187589        -1.037549        -0.514401
 H        -0.418301         0.689307         0.383039
 H         0.172867         0.623821        -1.186350
 H        -0.317250        -0.940084        -0.536513
 H         0.786388        -0.122912         2.431733
 H         0.504431        -1.714823         1.710915
 H         2.661358        -0.537026         3.278388
 H         2.348904        -2.041260         2.849613
 H         4.683172        -1.347990         1.836558
 H         4.584491         0.863312         0.503405
 H         4.255210        -1.453072        -0.734154
