19
Iteration:  4698charge 0 multiplicity 1
 C         0.252706         0.244427        -0.385233
 C         1.385303        -0.167458         0.385952
 C         1.256705        -0.832182         1.811612
 C         2.661866        -1.286775         2.308138
 C         3.738351        -0.815814         1.490534
 C         3.558750         0.345217         0.589336
 O         2.297293         0.955914         0.496074
 C         3.560347        -0.981099         0.045092
 O         2.181840        -1.153514        -0.357157
 H        -0.103551         1.173149         0.027399
 H         0.476762         0.564215        -1.444798
 H        -0.577162        -0.448694        -0.309638
 H         0.899866         0.024823         2.411468
 H         0.663345        -1.723309         1.863654
 H         2.764219        -0.911899         3.407476
 H         2.775143        -2.434316         2.382211
 H         4.786786        -0.936520         1.762584
 H         4.427215         0.991409         0.376919
 H         4.305528        -1.273142        -0.560579
