19
Iteration:  1678
 C         0.169105         0.192514        -0.223933
 C         1.453359        -0.292737         0.288807
 C         1.272748        -1.174846         1.571066
 C         2.582595        -1.116910         2.438493
 C         3.751243        -0.819960         1.512281
 C         3.643540         0.517262         0.649272
 O         2.295676         0.892006         0.791548
 C         3.571738        -0.961218        -0.048765
 O         2.216997        -0.940222        -0.618759
 H        -0.466804         0.815867         0.443009
 H         0.285505         0.691776        -1.181628
 H        -0.581046        -0.610993        -0.518051
 H         0.314265        -0.845067         2.150865
 H         1.106899        -2.268755         1.351175
 H         2.580403        -0.297297         3.201600
 H         2.823319        -2.064398         2.897788
 H         4.703743        -0.968197         1.912303
 H         4.336415         1.322859         0.668093
 H         4.421998        -1.188365        -0.852461
