19
Iteration:   216
 C         0.145760         0.235586        -0.420695
 C         1.449874        -0.248562         0.402659
 C         1.315550        -1.040128         1.734774
 C         2.698642        -1.541199         2.159957
 C         3.773331        -0.833407         1.460128
 C         3.490152         0.555848         0.806042
 O         2.145813         1.016796         0.595489
 C         3.651116        -0.728713         0.000741
 O         2.268497        -1.099664        -0.363976
 H        -0.468810         0.540924         0.442067
 H         0.417729         1.069197        -1.126950
 H        -0.317889        -0.586305        -0.966386
 H         1.055425        -0.289550         2.492903
 H         0.493906        -1.782812         1.780658
 H         2.712756        -1.302274         3.277158
 H         2.856721        -2.612560         2.083139
 H         4.721143        -0.818590         1.845272
 H         4.232357         1.377344         0.530836
 H         4.428287        -1.117122        -0.698443
