19
Iteration:  3747
 C         0.137361         0.360326        -0.299279
 C         1.402465        -0.277072         0.319176
 C         1.235490        -1.150090         1.724198
 C         2.657502        -0.967889         2.480305
 C         3.782355        -0.882800         1.530519
 C         3.637048         0.380202         0.604483
 O         2.390150         0.913007         0.556999
 C         3.507772        -0.991002        -0.063569
 O         2.152961        -1.069726        -0.465197
 H        -0.372263         0.941586         0.478221
 H         0.483831         0.844404        -1.226891
 H        -0.479565        -0.485206        -0.673170
 H         0.389433        -0.995157         2.273707
 H         1.332944        -2.172554         1.297187
 H         2.528668        -0.088297         3.147973
 H         2.874391        -1.887605         3.120311
 H         4.793269        -1.002999         1.783812
 H         4.287285         1.177887         0.531620
 H         4.208493        -1.542470        -0.668794
