19
Iteration:  1335charge 0 multiplicity 1
 C         0.206773         0.194986        -0.440591
 C         1.383061        -0.260148         0.407826
 C         1.249658        -0.896163         1.896397
 C         2.676657        -1.542307         2.191021
 C         3.837112        -0.724007         1.520823
 C         3.543310         0.542931         0.689697
 O         2.177383         0.981343         0.600447
 C         3.569417        -0.803086         0.000408
 O         2.266284        -1.145535        -0.430330
 H        -0.404718         0.889271         0.215106
 H         0.669378         0.855242        -1.189498
 H        -0.377558        -0.542044        -1.036931
 H         0.974598        -0.133477         2.596569
 H         0.374852        -1.663567         1.804659
 H         2.938716        -1.713045         3.245771
 H         2.658866        -2.637003         1.949606
 H         4.856108        -0.832623         1.732435
 H         4.320342         1.324496         0.641902
 H         4.351373        -1.122004        -0.778272
