19
Iteration:  1710
 C         0.167117         0.375557        -0.210831
 C         1.421656        -0.312299         0.380383
 C         1.322513        -1.232084         1.568375
 C         2.571646        -1.162162         2.351934
 C         3.790059        -0.951351         1.473774
 C         3.541464         0.547102         0.644065
 O         2.175773         0.940832         0.620632
 C         3.603935        -0.829296         0.020193
 O         2.296168        -1.113287        -0.493799
 H        -0.245635         1.022986         0.618534
 H         0.604115         0.966634        -1.023287
 H        -0.567407        -0.346747        -0.743487
 H         0.568975        -0.958915         2.311127
 H         1.193830        -2.275343         1.192508
 H         2.749914        -0.330010         3.070575
 H         2.828360        -1.921527         3.014983
 H         4.707774        -1.098581         1.938014
 H         4.163361         1.386051         0.757210
 H         4.477051        -0.973720        -0.818676
