19
Iteration:  1244charge 0 multiplicity 1
 C         0.176582         0.312852        -0.319708
 C         1.439869        -0.310431         0.370285
 C         1.326978        -1.177643         1.633302
 C         2.634027        -1.284012         2.368899
 C         3.743456        -0.751467         1.519045
 C         3.597999         0.539844         0.615869
 O         2.226469         0.917521         0.753600
 C         3.539137        -0.828570        -0.013097
 O         2.231152        -1.061137        -0.542861
 H        -0.350388         1.055944         0.326280
 H         0.508002         0.942866        -1.221030
 H        -0.342091        -0.636596        -0.692047
 H         0.430617        -0.902939         2.339861
 H         0.961510        -2.213513         1.345632
 H         2.489688        -0.823123         3.391556
 H         2.946326        -2.318939         2.601980
 H         4.860707        -0.909594         1.761403
 H         4.419877         1.254363         0.469396
 H         4.310814        -1.211213        -0.702309
