19
Iteration:  3140charge 0 multiplicity 1
 C         0.226332         0.060293        -0.369948
 C         1.459268        -0.278749         0.435805
 C         1.218473        -0.738208         1.850823
 C         2.599408        -1.377909         2.221694
 C         3.745619        -0.732427         1.471559
 C         3.545425         0.418788         0.686873
 O         2.298015         0.989473         0.566266
 C         3.589951        -0.879214        -0.064281
 O         2.229345        -1.146581        -0.412409
 H        -0.259230         0.962152         0.040890
 H         0.448115         0.385172        -1.401241
 H        -0.394456        -0.854599        -0.484661
 H         1.223123         0.182742         2.478715
 H         0.307933        -1.238293         2.057286
 H         2.841358        -1.197243         3.310966
 H         2.582489        -2.444702         2.077254
 H         4.720539        -0.827797         1.995791
 H         4.300897         1.141662         0.708918
 H         4.233990        -1.324022        -0.950580
