19
Iteration:  4652
 C         0.162693         0.183786        -0.249197
 C         1.516292        -0.164539         0.386407
 C         1.228475        -0.839526         1.783769
 C         2.581702        -1.232197         2.371133
 C         3.729859        -0.866678         1.474724
 C         3.612762         0.374901         0.676111
 O         2.330620         0.982426         0.442192
 C         3.551215        -1.060790        -0.010617
 O         2.247691        -1.106871        -0.452418
 H        -0.486168         0.962310         0.245926
 H         0.345353         0.601259        -1.220073
 H        -0.486924        -0.704758        -0.439817
 H         0.803514         0.049568         2.349885
 H         0.549898        -1.586545         1.613677
 H         2.592011        -0.497661         3.277488
 H         2.674252        -2.233371         2.768670
 H         4.725297        -1.060491         1.911912
 H         4.322096         1.127226         0.379127
 H         4.174292        -1.466049        -0.829776
