19
Iteration:  2446
 C         0.166529        -0.019769        -0.317597
 C         1.499878        -0.173908         0.374028
 C         1.262307        -0.762445         1.810473
 C         2.557627        -1.460998         2.254719
 C         3.734880        -0.822345         1.480672
 C         3.623540         0.428333         0.633835
 O         2.279486         1.017589         0.607279
 C         3.617461        -0.851602         0.022618
 O         2.228694        -1.031283        -0.502519
 H        -0.674582         0.327939         0.337175
 H         0.272018         0.777646        -1.173798
 H        -0.217069        -0.989995        -0.584134
 H         1.189324         0.116591         2.583180
 H         0.288122        -1.403122         1.849899
 H         2.575632        -1.209816         3.386915
 H         2.606255        -2.593054         2.172482
 H         4.659261        -1.016203         1.949220
 H         4.395451         1.232573         0.441159
 H         4.288388        -1.121623        -0.661887
