19
Iteration:  3680charge 0 multiplicity 1
 C         0.177608         0.153246        -0.325113
 C         1.403693        -0.095438         0.426375
 C         1.228421        -0.867895         1.722136
 C         2.667691        -1.291528         2.416933
 C         3.810446        -0.900385         1.526723
 C         3.556284         0.413849         0.581498
 O         2.294782         0.969979         0.492370
 C         3.558379        -0.949319         0.010986
 O         2.225303        -1.043922        -0.439436
 H        -0.632269         0.735457         0.006773
 H         0.282429         0.382604        -1.440716
 H        -0.348456        -0.777355        -0.389755
 H         0.764356        -0.194899         2.370192
 H         0.656110        -1.791343         1.622246
 H         2.958864        -0.768840         3.341254
 H         2.664911        -2.386020         2.627842
 H         4.865428        -1.131790         1.839689
 H         4.470349         1.053213         0.559467
 H         4.223475        -1.536385        -0.615158
