19
Iteration:   243charge 0 multiplicity 1
 C         0.191583         0.080089        -0.380378
 C         1.471304        -0.169672         0.457002
 C         1.294190        -1.049740         1.696810
 C         2.667423        -1.377836         2.374413
 C         3.746658        -0.842476         1.474990
 C         3.554237         0.448431         0.751977
 O         2.255269         0.956547         0.734925
 C         3.578286        -0.731056        -0.116954
 O         2.197314        -0.927450        -0.597077
 H        -0.648929         0.493785         0.171046
 H         0.420846         0.711243        -1.227877
 H        -0.172393        -0.954539        -0.605516
 H         0.438229        -0.744638         2.359964
 H         0.781981        -1.974418         1.372240
 H         2.671913        -1.124038         3.427959
 H         2.773078        -2.486856         2.512792
 H         4.885838        -0.899941         1.713640
 H         4.241797         1.233236         0.803612
 H         4.378915        -1.056091        -0.742299
