19
Iteration:  2694charge 0 multiplicity 1
 C         0.181054         0.067996        -0.370033
 C         1.454626        -0.195073         0.497396
 C         1.239007        -0.724789         1.874511
 C         2.580611        -1.449987         2.204123
 C         3.777386        -0.899334         1.384729
 C         3.578370         0.513307         0.687198
 O         2.252063         0.984349         0.533955
 C         3.601574        -0.784587        -0.019152
 O         2.266273        -1.138101        -0.402880
 H        -0.584885         0.821826        -0.105220
 H         0.536777         0.389145        -1.373312
 H        -0.191112        -0.944554        -0.489612
 H         1.120109         0.053168         2.592979
 H         0.406045        -1.461026         1.963527
 H         2.733473        -1.403860         3.285420
 H         2.431744        -2.558680         1.969398
 H         4.728174        -0.977761         1.969602
 H         4.224779         1.347446         0.810642
 H         4.407436        -1.188810        -0.741231
