19
Iteration:  2133
 C         0.189086         0.238044        -0.363551
 C         1.370579        -0.277388         0.440685
 C         1.252192        -1.119294         1.660255
 C         2.602244        -1.033188         2.391189
 C         3.869138        -0.974830         1.458431
 C         3.605342         0.422463         0.721905
 O         2.198845         0.835325         0.799912
 C         3.571125        -0.780425        -0.156652
 O         2.223280        -1.007912        -0.584903
 H        -0.131576         1.099349         0.187961
 H         0.737465         0.665502        -1.287127
 H        -0.339260        -0.597204        -0.747739
 H         0.548699        -0.973468         2.504830
 H         1.077492        -2.063234         1.247669
 H         2.686856        -0.119237         2.902156
 H         2.723943        -1.893498         3.206225
 H         4.911145        -1.296954         1.889692
 H         4.128688         1.313500         0.789490
 H         4.435316        -1.137442        -0.874071
