19
Iteration:  3216charge 0 multiplicity 1
 C         0.158636         0.134878        -0.215651
 C         1.456575        -0.216935         0.323780
 C         1.182217        -0.822452         1.700221
 C         2.568920        -1.261552         2.460191
 C         3.741605        -0.790966         1.494609
 C         3.633811         0.428774         0.647919
 O         2.291145         0.858242         0.515801
 C         3.633725        -0.924799        -0.020300
 O         2.251173        -1.070023        -0.536240
 H        -0.445527         0.442449         0.624846
 H         0.202934         0.956117        -0.946329
 H        -0.228472        -0.809106        -0.597063
 H         0.919114         0.154634         2.331863
 H         0.568676        -1.679960         1.777923
 H         2.750658        -0.571533         3.273012
 H         2.574882        -2.313307         2.689274
 H         4.815371        -1.058792         1.702045
 H         4.379409         1.131183         0.555163
 H         4.337378        -1.485063        -0.696381
