19
Iteration:   660charge 0 multiplicity 1
 C         0.080158         0.126887        -0.271790
 C         1.472415        -0.216833         0.396744
 C         1.254499        -0.985856         1.672421
 C         2.645095        -1.587277         2.057165
 C         3.770894        -0.686773         1.535703
 C         3.535465         0.616537         0.802075
 O         2.214042         0.949396         0.558738
 C         3.666537        -0.718693         0.065880
 O         2.331497        -1.082587        -0.391497
 H        -0.602622         0.795896         0.280234
 H         0.121948         0.639907        -1.234395
 H        -0.475573        -0.798494        -0.420088
 H         0.763862        -0.431295         2.554325
 H         0.501212        -1.798773         1.382961
 H         2.760728        -1.791955         3.140641
 H         2.762462        -2.607783         1.611096
 H         4.714892        -0.775575         1.905181
 H         4.349045         1.410417         0.820944
 H         4.336600        -1.135624        -0.725944
