19
Iteration:  4426charge 0 multiplicity 1
 C         0.200149         0.162349        -0.293222
 C         1.446728        -0.209180         0.360546
 C         1.289044        -0.680146         1.769375
 C         2.566846        -1.272631         2.323379
 C         3.721815        -0.792840         1.428690
 C         3.600940         0.364447         0.644907
 O         2.353290         0.950331         0.482070
 C         3.575971        -0.924356        -0.019146
 O         2.198184        -1.219717        -0.341726
 H        -0.518395         0.640241         0.457688
 H         0.222970         0.748003        -1.171247
 H        -0.387447        -0.754778        -0.589226
 H         0.849947         0.067452         2.352783
 H         0.385079        -1.437789         1.781315
 H         2.599496        -0.958054         3.342558
 H         2.651672        -2.412815         2.289417
 H         4.713124        -0.992387         1.880166
 H         4.481067         0.994423         0.575762
 H         4.421705        -1.413133        -0.656936
