19
Iteration:  4887charge 0 multiplicity 1
 C         0.148344         0.230411        -0.278488
 C         1.501114        -0.162794         0.411363
 C         1.285711        -0.903066         1.676490
 C         2.568160        -1.188354         2.383734
 C         3.800928        -0.848755         1.513271
 C         3.615519         0.387026         0.514080
 O         2.308449         0.946793         0.502046
 C         3.555745        -1.021044         0.074572
 O         2.169973        -1.085674        -0.397863
 H        -0.299244         1.131489         0.257324
 H         0.363543         0.406067        -1.304157
 H        -0.520441        -0.610463         0.020517
 H         0.595537        -0.355999         2.210620
 H         0.766834        -1.842258         1.157227
 H         2.486918        -0.637612         3.299819
 H         2.838126        -2.261895         2.730899
 H         4.809586        -0.978732         1.797072
 H         4.506742         0.983148         0.328426
 H         4.149065        -1.586472        -0.620615
