19
Iteration:  2976
 C         0.089441         0.123739        -0.225285
 C         1.499803        -0.192100         0.312006
 C         1.274977        -0.799136         1.725971
 C         2.584289        -1.403509         2.295239
 C         3.766625        -0.858005         1.544194
 C         3.544947         0.451259         0.696361
 O         2.272782         1.023111         0.445892
 C         3.599334        -0.842584         0.033043
 O         2.301789        -1.190699        -0.461952
 H        -0.369798         0.620636         0.662124
 H         0.032857         0.840088        -0.983808
 H        -0.374590        -0.846216        -0.471873
 H         0.982671         0.043374         2.343794
 H         0.479285        -1.459236         1.558331
 H         2.656376        -1.063264         3.392360
 H         2.629389        -2.464017         2.341615
 H         4.773710        -0.846095         1.886596
 H         4.440983         1.122216         0.720991
 H         4.303117        -1.080573        -0.695179
