19
Iteration:  4931
 C         0.184440         0.240912        -0.294158
 C         1.434899        -0.205648         0.366353
 C         1.290303        -0.826443         1.747017
 C         2.644343        -1.162049         2.446578
 C         3.749019        -0.923559         1.458461
 C         3.542103         0.349538         0.638285
 O         2.253209         0.866002         0.500257
 C         3.558943        -0.951721        -0.023995
 O         2.266288        -1.103755        -0.465125
 H        -0.187322         1.189216         0.220243
 H         0.554339         0.621795        -1.232965
 H        -0.582642        -0.583511        -0.285081
 H         0.823169        -0.103467         2.333832
 H         0.492465        -1.723368         1.798553
 H         2.941412        -0.510270         3.236845
 H         2.566623        -2.205514         2.891592
 H         4.765214        -1.103547         1.768243
 H         4.309761         1.151602         0.460131
 H         4.213316        -1.245209        -0.736786
