19
Iteration:  3425
 C         0.137590         0.146381        -0.341802
 C         1.484491        -0.229251         0.402880
 C         1.307355        -0.800199         1.777632
 C         2.596630        -1.395810         2.305145
 C         3.815293        -0.774508         1.517283
 C         3.595452         0.512864         0.589010
 O         2.287304         0.999279         0.473466
 C         3.568451        -0.961472         0.069685
 O         2.158836        -1.132854        -0.344576
 H        -0.493069         0.986646        -0.021898
 H         0.420805         0.495353        -1.342218
 H        -0.394852        -0.762283        -0.608515
 H         0.849601        -0.059412         2.557164
 H         0.567283        -1.562007         1.577649
 H         2.692860        -1.094890         3.337213
 H         2.844918        -2.435749         2.090502
 H         4.801227        -1.104911         1.846292
 H         4.348439         1.324195         0.299934
 H         4.217483        -1.678442        -0.546840
