19
Iteration:  3790
 C         0.073172         0.152236        -0.255416
 C         1.475100        -0.222366         0.356963
 C         1.204798        -0.900058         1.721865
 C         2.565925        -1.100034         2.441347
 C         3.774151        -0.865007         1.472002
 C         3.701583         0.336663         0.663251
 O         2.310326         0.929375         0.519073
 C         3.616840        -0.962433        -0.069875
 O         2.235015        -1.041948        -0.500336
 H        -0.060079         0.928449         0.493299
 H         0.105567         0.498203        -1.309827
 H        -0.652010        -0.665242        -0.116257
 H         0.696927        -0.113760         2.267554
 H         0.558543        -1.790643         1.630492
 H         2.696890        -0.463178         3.347706
 H         2.552156        -2.208937         2.744913
 H         4.728555        -1.143648         1.863612
 H         4.497895         1.000653         0.612224
 H         4.272053        -1.563681        -0.718694
