19
Iteration:  2692charge 0 multiplicity 1
 C         0.175564         0.060389        -0.380869
 C         1.460899        -0.181171         0.492445
 C         1.240679        -0.736009         1.883776
 C         2.576468        -1.442912         2.194344
 C         3.772481        -0.904611         1.401212
 C         3.584759         0.508410         0.696214
 O         2.252369         0.992721         0.539169
 C         3.598477        -0.806133        -0.038152
 O         2.268790        -1.128599        -0.397606
 H        -0.561479         0.735376        -0.083829
 H         0.489639         0.366626        -1.384548
 H        -0.226659        -0.877834        -0.543975
 H         1.107188         0.068033         2.617534
 H         0.464878        -1.541529         1.975862
 H         2.731190        -1.359928         3.295506
 H         2.466242        -2.466314         1.959491
 H         4.740090        -0.999923         1.940700
 H         4.245246         1.390128         0.768499
 H         4.350734        -1.169105        -0.712689
