19
Iteration:  1814
 C         0.126017         0.182471        -0.325851
 C         1.446697        -0.340534         0.354480
 C         1.329787        -0.897808         1.805617
 C         2.562023        -1.603950         2.103432
 C         3.715210        -0.711932         1.572438
 C         3.531009         0.539852         0.616909
 O         2.227716         1.063242         0.550140
 C         3.674576        -0.802874         0.051284
 O         2.292853        -1.102810        -0.388183
 H        -0.489693         0.700949         0.408966
 H         0.451951         0.780066        -1.130907
 H        -0.376156        -0.769875        -0.552892
 H         1.270771         0.016802         2.604237
 H         0.487427        -1.586432         2.103951
 H         2.775114        -1.716250         3.145359
 H         2.538166        -2.604681         1.535439
 H         4.655354        -0.672584         2.130035
 H         4.279291         1.286997         0.708659
 H         4.510297        -1.236525        -0.602045
