19
Iteration:  4144charge 0 multiplicity 1
 C         0.161717         0.107547        -0.317728
 C         1.467616        -0.219577         0.342638
 C         1.310581        -0.685059         1.888140
 C         2.629510        -1.267805         2.497963
 C         3.677414        -0.927244         1.534349
 C         3.608865         0.428310         0.651713
 O         2.269475         0.918920         0.414881
 C         3.590052        -0.962475        -0.045542
 O         2.249702        -1.064603        -0.571273
 H        -0.305376         0.995052         0.064786
 H         0.304258         0.213233        -1.424284
 H        -0.590574        -0.636046        -0.103206
 H         1.094267         0.206452         2.511756
 H         0.427304        -1.456147         1.968587
 H         2.900319        -1.000780         3.543975
 H         2.368451        -2.351048         2.569279
 H         4.676404        -1.253966         1.809733
 H         4.294225         1.339196         0.779532
 H         4.235154        -1.465621        -0.763453
