19
Iteration:  4300
 C         0.143981         0.181703        -0.347828
 C         1.484083        -0.178218         0.392141
 C         1.260137        -0.874751         1.758334
 C         2.624299        -1.153953         2.515359
 C         3.763999        -0.893074         1.519446
 C         3.600544         0.345276         0.600517
 O         2.357830         0.950948         0.503169
 C         3.536462        -1.003048        -0.065887
 O         2.172774        -1.102032        -0.456705
 H        -0.408884         1.066272        -0.009265
 H         0.337309         0.504656        -1.350054
 H        -0.607073        -0.607193        -0.498540
 H         0.639920        -0.024304         2.335262
 H         0.692398        -1.768329         1.646741
 H         2.765570        -0.281517         3.195795
 H         2.629638        -2.120153         2.979373
 H         4.823645        -1.039715         1.828026
 H         4.457922         1.010094         0.570681
 H         4.276926        -1.470771        -0.822936
