19
Iteration:  4076charge 0 multiplicity 1
 C         0.260133         0.221445        -0.425064
 C         1.401399        -0.266753         0.411450
 C         1.336273        -0.767333         1.873131
 C         2.634965        -1.289484         2.342372
 C         3.716780        -0.813178         1.485046
 C         3.591346         0.383578         0.576424
 O         2.274871         0.977018         0.448418
 C         3.521833        -0.945383         0.011955
 O         2.166022        -1.178913        -0.322031
 H        -0.475668         0.772208         0.170931
 H         0.674616         0.937921        -1.169138
 H        -0.307443        -0.545082        -0.943638
 H         0.904172         0.078339         2.345628
 H         0.631960        -1.712353         2.036607
 H         2.817773        -0.972254         3.338929
 H         2.857897        -2.364273         2.445069
 H         4.647024        -1.150056         1.985798
 H         4.419313         1.028516         0.360018
 H         4.275168        -1.176594        -0.810679
