19
Iteration:   195
 C         0.161665         0.172548        -0.275666
 C         1.411380        -0.268350         0.410837
 C         1.245269        -0.847583         1.757012
 C         2.612373        -1.518146         2.109327
 C         3.790011        -0.701944         1.574706
 C         3.537826         0.543567         0.715701
 O         2.158533         0.902173         0.653984
 C         3.631773        -0.764640        -0.050625
 O         2.387908        -1.158353        -0.474076
 H        -0.526885         0.581705         0.485524
 H         0.550615         0.892600        -1.020489
 H        -0.297808        -0.633252        -0.796011
 H         0.815654        -0.126378         2.421212
 H         0.401467        -1.560657         1.752144
 H         2.785025        -2.033526         3.133565
 H         2.544811        -2.358431         1.452759
 H         4.704313        -0.796761         2.005517
 H         4.228229         1.522580         0.721220
 H         4.427114        -0.832774        -0.840077
