19
Iteration:  2049
 C         0.176767         0.228255        -0.237405
 C         1.415538        -0.263935         0.334480
 C         1.304486        -0.894570         1.778868
 C         2.607528        -1.506067         2.205334
 C         3.716802        -0.771675         1.557004
 C         3.527221         0.513423         0.745755
 O         2.166064         0.959639         0.452854
 C         3.678351        -0.794313        -0.004714
 O         2.341423        -1.138613        -0.420588
 H        -0.531961         0.673088         0.439332
 H         0.439952         0.870358        -1.093713
 H        -0.379500        -0.591222        -0.603713
 H         1.174638        -0.048546         2.458567
 H         0.329871        -1.561348         1.787520
 H         2.648236        -1.742599         3.273860
 H         2.507642        -2.449085         1.701215
 H         4.771945        -0.783447         1.973497
 H         4.220905         1.301460         0.761100
 H         4.635414        -0.995825        -0.683510
