19
Iteration:  2794
 C         0.162861         0.232521        -0.432019
 C         1.456526        -0.276921         0.352159
 C         1.307268        -1.041636         1.707635
 C         2.662760        -1.085939         2.490495
 C         3.813658        -0.860162         1.496525
 C         3.608699         0.349449         0.659739
 O         2.256796         0.830795         0.726728
 C         3.533890        -0.876228        -0.076344
 O         2.176498        -0.990821        -0.575263
 H        -0.564360         0.808419         0.234274
 H         0.406140         0.896409        -1.236018
 H        -0.465233        -0.684942        -0.641898
 H         0.636005        -0.448199         2.294929
 H         0.920875        -2.044652         1.843362
 H         2.807144        -0.350106         3.235317
 H         2.610066        -2.061015         3.083534
 H         4.831222        -0.945698         1.755206
 H         4.204344         1.266704         0.549236
 H         4.190997        -1.230311        -0.837496
