19
Iteration:  2827
 C         0.215252         0.249624        -0.252867
 C         1.505555        -0.198107         0.377365
 C         1.281741        -1.195410         1.642873
 C         2.569754        -0.984663         2.416204
 C         3.736126        -0.861830         1.454428
 C         3.660984         0.420207         0.625075
 O         2.277932         0.903574         0.694359
 C         3.519013        -0.947221        -0.123770
 O         2.186116        -1.052862        -0.482964
 H        -0.478648         0.474298         0.603608
 H         0.353365         0.959532        -1.022912
 H        -0.155534        -0.707434        -0.747958
 H         0.372800        -0.851849         2.075655
 H         1.136124        -2.244102         1.276753
 H         2.486605        -0.046183         2.876526
 H         2.606924        -1.781147         3.230599
 H         4.732631        -1.054845         1.694706
 H         4.440950         1.230248         0.640338
 H         4.275881        -1.437056        -0.596519
