19
Iteration:   176
 C         0.162904         0.032128        -0.280081
 C         1.445505        -0.239967         0.361605
 C         1.204923        -0.884339         1.853206
 C         2.527223        -1.548078         2.063204
 C         3.782092        -0.763854         1.469491
 C         3.529819         0.525170         0.729686
 O         2.235373         0.983520         0.605247
 C         3.702242        -0.724951         0.016264
 O         2.348473        -1.003250        -0.463636
 H        -0.573567         0.556855         0.320089
 H         0.190104         0.641411        -1.112652
 H        -0.328269        -0.866092        -0.454517
 H         0.934674        -0.137454         2.615012
 H         0.390133        -1.613128         1.939121
 H         2.738134        -1.671141         3.127059
 H         2.512864        -2.563899         1.665837
 H         4.699683        -1.027932         1.995254
 H         4.337678         1.305797         0.778534
 H         4.561430        -1.108824        -0.617792
