19
Iteration:  3489charge 0 multiplicity 1
 C         0.106459         0.244829        -0.302735
 C         1.451323        -0.243154         0.341855
 C         1.281324        -1.031099         1.719190
 C         2.619033        -1.016690         2.473979
 C         3.763754        -0.788598         1.470354
 C         3.608202         0.334857         0.638916
 O         2.309036         0.895514         0.657578
 C         3.586158        -0.990801        -0.037931
 O         2.206937        -1.065210        -0.552041
 H        -0.145621         1.156491         0.225125
 H         0.436072         0.407100        -1.372664
 H        -0.598621        -0.589020        -0.201403
 H         0.357438        -0.642178         2.247447
 H         1.105842        -2.020653         1.442199
 H         2.555131        -0.161384         3.201328
 H         2.616445        -1.937025         3.113120
 H         4.739145        -1.200945         1.684750
 H         4.432874         0.946468         0.217027
 H         4.308153        -1.412123        -0.803864
