19
Iteration:  4883
 C         0.140490         0.227140        -0.287342
 C         1.495931        -0.117124         0.406263
 C         1.308448        -0.904260         1.696691
 C         2.561175        -1.218960         2.435166
 C         3.824641        -0.855218         1.498783
 C         3.609193         0.369548         0.537639
 O         2.275356         0.945699         0.494163
 C         3.598209        -1.028029         0.038702
 O         2.163951        -1.091251        -0.416754
 H        -0.240601         1.150834         0.155336
 H         0.338916         0.486397        -1.377798
 H        -0.526490        -0.620859        -0.084000
 H         0.519872        -0.376707         2.386895
 H         0.775036        -1.731891         1.256938
 H         2.525547        -0.543053         3.316923
 H         2.659603        -2.179070         2.793849
 H         4.901885        -0.961806         1.802900
 H         4.419396         1.059282         0.439107
 H         4.198834        -1.687735        -0.756019
