19
Iteration:   948
 C         0.172554         0.123770        -0.420269
 C         1.442766        -0.308956         0.361828
 C         1.301367        -1.075254         1.722765
 C         2.676882        -1.339153         2.410834
 C         3.732225        -0.815199         1.504310
 C         3.566166         0.418647         0.771535
 O         2.185861         0.897346         0.763517
 C         3.556944        -0.745941        -0.112083
 O         2.267238        -0.869825        -0.623084
 H        -0.562998         0.646632         0.235484
 H         0.543367         0.858792        -1.115930
 H        -0.271580        -0.783664        -0.764319
 H         0.783146        -0.350322         2.328916
 H         0.813812        -2.031411         1.664987
 H         2.814072        -0.789422         3.408259
 H         2.840419        -2.513607         2.502154
 H         4.755807        -0.931583         1.739156
 H         4.292220         1.328453         0.814173
 H         4.407560        -1.021602        -0.842658
