19
Iteration:  3178charge 0 multiplicity 1
 C         0.199161         0.182371        -0.495558
 C         1.386302        -0.190729         0.423466
 C         1.243958        -0.767658         1.828258
 C         2.721849        -1.465835         2.237853
 C         3.837092        -0.757622         1.505887
 C         3.556387         0.456964         0.649838
 O         2.285449         0.968097         0.491992
 C         3.552938        -0.922887        -0.014139
 O         2.156769        -1.152855        -0.230152
 H        -0.705660         0.533715         0.034911
 H         0.576027         0.840090        -1.332965
 H        -0.099551        -0.780669        -0.941022
 H         0.957863         0.063068         2.514573
 H         0.298577        -1.432459         1.876483
 H         2.729290        -1.306593         3.345290
 H         2.874773        -2.594364         2.136188
 H         4.858637        -0.904108         1.780886
 H         4.300902         1.359153         0.576202
 H         4.216363        -1.293038        -0.716347
