19
Iteration:   988charge 0 multiplicity 1
 C         0.219004         0.200534        -0.322148
 C         1.440536        -0.240024         0.416825
 C         1.322627        -1.240052         1.533536
 C         2.573423        -1.188316         2.271316
 C         3.809275        -0.854142         1.380876
 C         3.569812         0.509851         0.797342
 O         2.179408         0.929419         0.818239
 C         3.595218        -0.773128        -0.148146
 O         2.253216        -1.040302        -0.410016
 H        -0.294474         0.979581         0.293306
 H         0.504234         0.812881        -1.198709
 H        -0.405585        -0.681065        -0.657428
 H         0.432556        -1.034564         2.238181
 H         0.846096        -2.154848         1.226554
 H         2.506673        -0.446459         3.052744
 H         2.776152        -2.095596         2.785776
 H         4.758943        -0.939034         1.985459
 H         4.350752         1.263186         0.715539
 H         4.300374        -0.963402        -1.036028
