19
Iteration:  1017
 C         0.086831         0.252679        -0.219715
 C         1.435533        -0.309910         0.324638
 C         1.340054        -1.202922         1.596971
 C         2.622215        -1.278759         2.451819
 C         3.714639        -0.829507         1.502039
 C         3.565932         0.525762         0.705851
 O         2.179480         0.902948         0.653457
 C         3.591306        -0.819432        -0.004636
 O         2.371342        -0.927473        -0.635893
 H        -0.198598         0.968538         0.533383
 H         0.388493         0.907772        -1.046212
 H        -0.705832        -0.499721        -0.332853
 H         0.543018        -0.744746         2.224508
 H         0.969422        -2.287311         1.290283
 H         2.624393        -0.717573         3.422786
 H         2.857950        -2.424830         2.578428
 H         4.744087        -1.035851         1.909886
 H         4.322876         1.227123         0.516638
 H         4.419779        -1.108224        -0.582939
