19
Iteration:   730charge 0 multiplicity 1
 C         0.161934         0.050448        -0.413114
 C         1.418275        -0.205116         0.420245
 C         1.289159        -1.165966         1.610457
 C         2.634757        -1.266461         2.367456
 C         3.770786        -0.887506         1.391470
 C         3.600094         0.498071         0.766935
 O         2.256489         0.954972         0.883321
 C         3.561413        -0.777926        -0.058214
 O         2.240085        -0.889656        -0.561405
 H        -0.609878         0.648470         0.076969
 H         0.518088         0.717868        -1.250455
 H        -0.191778        -0.941298        -0.793945
 H         0.344323        -0.983415         2.191014
 H         0.898836        -2.219307         1.179799
 H         2.697451        -0.527526         3.140493
 H         2.777758        -2.158387         2.870724
 H         4.875095        -1.032325         1.729574
 H         4.236553         1.286301         0.564788
 H         4.328053        -0.830634        -0.788165
