19
Iteration:  3110charge 0 multiplicity 1
 C         0.027791         0.113250        -0.239257
 C         1.443137        -0.212414         0.351659
 C         1.278244        -0.877277         1.727532
 C         2.597082        -1.309045         2.378607
 C         3.791510        -0.898768         1.574485
 C         3.564404         0.420005         0.657707
 O         2.315862         1.067330         0.428727
 C         3.627483        -0.889391         0.085848
 O         2.321334        -1.075548        -0.539374
 H        -0.369285         1.003312         0.253631
 H        -0.043032         0.304914        -1.375641
 H        -0.708285        -0.684612        -0.050630
 H         0.728146        -0.265029         2.367535
 H         0.531205        -1.718200         1.569612
 H         2.791690        -0.813383         3.403573
 H         2.604953        -2.401778         2.589634
 H         4.781823        -1.317446         1.907893
 H         4.336151         1.098037         0.502735
 H         4.261236        -1.280147        -0.759574
