19
Iteration:  2447
 C         0.167486        -0.011858        -0.320523
 C         1.488320        -0.189273         0.373165
 C         1.259077        -0.757014         1.819827
 C         2.561656        -1.467719         2.243012
 C         3.737160        -0.817567         1.480016
 C         3.616423         0.428998         0.637811
 O         2.282131         1.016299         0.611183
 C         3.625888        -0.858801         0.020354
 O         2.229114        -1.024353        -0.500656
 H        -0.678689         0.307091         0.331977
 H         0.302090         0.745155        -1.174750
 H        -0.203186        -0.995082        -0.601242
 H         1.209299         0.146712         2.578914
 H         0.277073        -1.382429         1.866151
 H         2.586248        -1.190513         3.406938
 H         2.584608        -2.567191         2.169153
 H         4.643594        -1.000842         1.974422
 H         4.376011         1.237343         0.421469
 H         4.311120        -1.143745        -0.703782
