19
Iteration:   199charge 0 multiplicity 1
 C         0.177781         0.203012        -0.287922
 C         1.398103        -0.268731         0.352523
 C         1.275291        -0.861233         1.743650
 C         2.630010        -1.557434         2.130748
 C         3.786110        -0.665636         1.549384
 C         3.509138         0.541979         0.710349
 O         2.174222         0.912385         0.663114
 C         3.624890        -0.748518        -0.044937
 O         2.365950        -1.185073        -0.440803
 H        -0.626003         0.630444         0.329856
 H         0.462989         0.982835        -0.940123
 H        -0.341815        -0.596492        -0.801688
 H         0.826736        -0.154926         2.477334
 H         0.436781        -1.571926         1.751850
 H         2.822933        -1.904513         3.133049
 H         2.607930        -2.538608         1.600377
 H         4.817046        -0.813920         2.042730
 H         4.177696         1.402507         0.915733
 H         4.416343        -0.851744        -0.824203
