19
Iteration:  3689charge 0 multiplicity 1
 C         0.086982         0.150797        -0.360764
 C         1.441344        -0.158152         0.413205
 C         1.232350        -0.935775         1.759873
 C         2.659911        -1.177400         2.408609
 C         3.803001        -0.874446         1.505620
 C         3.631667         0.339536         0.632287
 O         2.321346         0.963886         0.554054
 C         3.542848        -0.942328        -0.059543
 O         2.221182        -1.052147        -0.466620
 H        -0.552735         0.896779         0.068202
 H         0.542816         0.578496        -1.256277
 H        -0.335670        -0.802392        -0.562279
 H         0.721325        -0.264178         2.489087
 H         0.580573        -1.719438         1.645494
 H         2.729281        -0.558727         3.337182
 H         2.640233        -2.225688         2.776082
 H         4.777337        -1.238089         1.961656
 H         4.276168         1.270011         0.437569
 H         4.222302        -1.406347        -0.804575
