19
Iteration:  1518charge 0 multiplicity 1
 C         0.092490        -0.013628        -0.292815
 C         1.495287        -0.216830         0.378979
 C         1.247413        -0.896070         1.703711
 C         2.616582        -1.305253         2.345152
 C         3.754428        -0.909702         1.439334
 C         3.654991         0.430350         0.736998
 O         2.229095         0.964108         0.710757
 C         3.604956        -0.771691        -0.062079
 O         2.276504        -0.931343        -0.563374
 H        -0.557472         0.453279         0.492166
 H         0.239175         0.475558        -1.280293
 H        -0.355076        -0.974334        -0.610662
 H         0.700060        -0.078184         2.177515
 H         0.603071        -1.711482         1.470197
 H         2.722863        -0.933397         3.451693
 H         2.544457        -2.466507         2.358060
 H         4.706746        -1.177033         1.835214
 H         4.370881         1.236861         0.691875
 H         4.402257        -1.201871        -0.849320
