19
Iteration:  2225
 C         0.238301         0.020040        -0.410507
 C         1.414077        -0.194756         0.413349
 C         1.275793        -0.776250         1.804291
 C         2.607382        -1.388086         2.228175
 C         3.773617        -0.854568         1.457923
 C         3.567284         0.448966         0.718399
 O         2.237727         0.953924         0.696400
 C         3.590870        -0.785484        -0.084153
 O         2.242025        -1.057819        -0.426498
 H        -0.402882         0.718050         0.134528
 H         0.340179         0.414246        -1.367689
 H        -0.181865        -1.003185        -0.539090
 H         1.012410         0.093265         2.420092
 H         0.339318        -1.442057         1.854402
 H         2.691442        -1.376639         3.331409
 H         2.548124        -2.416037         1.872827
 H         4.736593        -1.126258         1.817366
 H         4.379968         1.197078         0.548705
 H         4.309952        -1.085735        -0.829487
