19
Iteration:  4910charge 0 multiplicity 1
 C         0.109058         0.223299        -0.286239
 C         1.462062        -0.246840         0.346111
 C         1.183404        -0.933777         1.830070
 C         2.513731        -1.165590         2.445986
 C         3.775570        -0.739400         1.495479
 C         3.707328         0.429595         0.590029
 O         2.405198         0.989982         0.535831
 C         3.614653        -0.986741        -0.071218
 O         2.164249        -1.208681        -0.520341
 H        -0.077583         1.128123         0.358216
 H         0.244339         0.581986        -1.278469
 H        -0.698406        -0.485270        -0.047430
 H         0.556484        -0.356970         2.428247
 H         0.624240        -1.919958         1.550219
 H         2.593948        -0.729686         3.439870
 H         2.747767        -2.293071         2.614162
 H         4.773512        -1.055380         1.770992
 H         4.577584         1.138459         0.451422
 H         4.217289        -1.532120        -0.659978
