19
Iteration:  3730charge 0 multiplicity 1
 C         0.229499         0.307483        -0.295891
 C         1.420707        -0.230710         0.456856
 C         1.297912        -1.061796         1.694029
 C         2.564603        -0.964350         2.435161
 C         3.807950        -0.868939         1.443299
 C         3.635143         0.346211         0.576866
 O         2.230877         0.846738         0.684711
 C         3.548609        -1.003471        -0.047381
 O         2.209441        -1.116386        -0.551415
 H        -0.447781         0.938239         0.357949
 H         0.554060         0.987272        -1.064066
 H        -0.533565        -0.353680        -0.754891
 H         0.500638        -0.506916         2.403437
 H         0.923933        -2.082550         1.428988
 H         2.506596         0.033788         2.938130
 H         2.792313        -1.705544         3.216264
 H         4.834807        -1.156658         1.847216
 H         4.471478         1.058899         0.221671
 H         4.354627        -1.259316        -0.797398
