19
Iteration:  3588
 C         0.187375         0.080772        -0.412610
 C         1.420558        -0.139856         0.483727
 C         1.261172        -0.787572         1.831771
 C         2.660906        -1.337031         2.376238
 C         3.739476        -0.847512         1.464343
 C         3.622948         0.400070         0.629664
 O         2.272741         0.999880         0.476451
 C         3.565325        -0.938680        -0.066673
 O         2.233207        -1.048683        -0.366833
 H        -0.604105         0.644605         0.148988
 H         0.399139         0.512418        -1.353429
 H        -0.159187        -0.962278        -0.555965
 H         0.812742        -0.053861         2.570469
 H         0.599542        -1.566007         1.676904
 H         2.640931        -1.136149         3.455075
 H         2.602849        -2.432705         2.204001
 H         4.672412        -1.209045         1.806708
 H         4.268535         1.179013         0.457674
 H         4.238522        -1.405056        -0.755887
