19
Iteration:  1598
 C         0.187626         0.213063        -0.355037
 C         1.419266        -0.294930         0.370658
 C         1.281253        -0.915176         1.806964
 C         2.649635        -1.471954         2.158476
 C         3.797791        -0.657974         1.588539
 C         3.525702         0.471457         0.632538
 O         2.211780         0.943447         0.624960
 C         3.622941        -0.783868        -0.023636
 O         2.265278        -1.153503        -0.418989
 H        -0.267719         0.990684         0.301580
 H         0.535746         0.917638        -1.194885
 H        -0.592232        -0.528776        -0.653207
 H         0.872879        -0.220666         2.463343
 H         0.575849        -1.833268         1.799200
 H         2.497969        -1.627870         3.241252
 H         2.605073        -2.497155         1.764752
 H         4.870329        -0.754548         2.003848
 H         4.186601         1.365733         0.534627
 H         4.330238        -1.235391        -0.610636
