19
Iteration:  4378charge 0 multiplicity 1
 C         0.151602         0.081372        -0.376168
 C         1.476210        -0.117771         0.386611
 C         1.319293        -0.705984         1.781764
 C         2.609018        -1.298571         2.415783
 C         3.720620        -0.860194         1.475616
 C         3.639127         0.410025         0.667882
 O         2.370161         0.985422         0.466359
 C         3.521564        -0.987439        -0.024516
 O         2.149018        -1.145023        -0.428479
 H        -0.555218         0.724802         0.043920
 H         0.357167         0.390315        -1.443792
 H        -0.328756        -0.858472        -0.450164
 H         0.873878         0.004653         2.640604
 H         0.623587        -1.439530         2.009036
 H         2.712523        -0.898800         3.457289
 H         2.642934        -2.345461         2.457600
 H         4.670306        -1.089242         1.920434
 H         4.461315         1.126800         0.721518
 H         4.045820        -1.372694        -0.807591
