19
Iteration:  2815
 C         0.193456         0.195230        -0.329609
 C         1.396086        -0.295292         0.414224
 C         1.259193        -1.113257         1.661393
 C         2.609058        -0.975058         2.467848
 C         3.780571        -0.882703         1.412050
 C         3.643869         0.412914         0.637436
 O         2.294868         0.947557         0.759238
 C         3.504971        -0.947400        -0.011085
 O         2.245767        -1.045195        -0.619953
 H        -0.501517         0.741670         0.364705
 H         0.485236         1.006284        -0.912096
 H        -0.422591        -0.533238        -0.890202
 H         0.495493        -0.889650         2.381729
 H         1.135631        -2.213520         1.353881
 H         2.611926        -0.066204         3.021162
 H         2.802486        -1.779231         3.208950
 H         4.709457        -1.350156         1.655488
 H         4.317690         1.253607         0.423565
 H         4.127722        -1.397387        -0.777646
