19
Iteration:  2999charge 0 multiplicity 1
 C         0.059067         0.111993        -0.292072
 C         1.457806        -0.180719         0.419400
 C         1.240647        -0.947627         1.716323
 C         2.601375        -1.203331         2.382441
 C         3.770050        -0.809796         1.505136
 C         3.660222         0.447745         0.652857
 O         2.314700         0.932445         0.530072
 C         3.598068        -0.959781        -0.001067
 O         2.236496        -1.024432        -0.500057
 H        -0.643457         0.516649         0.450377
 H         0.179850         0.908285        -0.951674
 H        -0.158449        -0.862980        -0.752023
 H         0.529178        -0.331115         2.236655
 H         0.734383        -1.828261         1.303682
 H         2.706599        -0.829830         3.457329
 H         2.815054        -2.243789         2.502922
 H         4.749087        -1.104339         1.877553
 H         4.476117         1.211806         0.566227
 H         4.205193        -1.517151        -0.685194
