19
Iteration:  1101
 C         0.251386         0.189888        -0.480438
 C         1.370418        -0.302221         0.372176
 C         1.320326        -0.907715         1.838875
 C         2.702108        -1.498824         2.225485
 C         3.801088        -0.705200         1.524407
 C         3.491780         0.526997         0.666852
 O         2.183811         0.928532         0.756909
 C         3.569740        -0.756410        -0.014771
 O         2.228069        -1.094244        -0.492723
 H        -0.396719         0.786515         0.196722
 H         0.561720         0.875149        -1.339682
 H        -0.335155        -0.561959        -1.037807
 H         0.904984        -0.278223         2.642904
 H         0.647461        -1.720521         1.840014
 H         2.770888        -1.753341         3.280562
 H         2.955903        -2.468933         1.888856
 H         4.792468        -1.084342         1.814156
 H         4.158204         1.366157         0.620640
 H         4.319916        -1.119950        -0.633424
