19
Iteration:  3159
 C         0.270641         0.101948        -0.508159
 C         1.374741        -0.165739         0.459578
 C         1.316991        -0.736957         1.906119
 C         2.612474        -1.465018         2.256840
 C         3.789773        -0.817967         1.454273
 C         3.599683         0.484503         0.587798
 O         2.212505         1.040248         0.540652
 C         3.574472        -0.840741         0.014407
 O         2.191975        -1.217739        -0.272096
 H        -0.471633         0.829942        -0.105699
 H         0.681529         0.586916        -1.345444
 H        -0.209932        -0.827411        -0.866681
 H         0.909617         0.059603         2.644688
 H         0.572633        -1.528112         1.997654
 H         2.840413        -1.621973         3.276576
 H         2.466434        -2.470166         1.825038
 H         4.803187        -0.981201         1.804630
 H         4.331108         1.266410         0.312105
 H         4.193273        -1.247531        -0.795326
