19
Iteration:  3671
 C         0.174195         0.124503        -0.347817
 C         1.456604        -0.141858         0.388005
 C         1.296272        -0.779564         1.774945
 C         2.639738        -1.380149         2.406047
 C         3.760664        -0.886696         1.473646
 C         3.612738         0.460051         0.610024
 O         2.275832         1.021302         0.460630
 C         3.547437        -0.971472         0.063313
 O         2.187513        -1.082737        -0.415214
 H        -0.385123         0.863384         0.257587
 H         0.298114         0.366320        -1.460697
 H        -0.314732        -0.862116        -0.207996
 H         0.652243        -0.221163         2.403902
 H         0.687776        -1.737080         1.449121
 H         2.665167        -1.020413         3.437172
 H         2.678243        -2.476239         2.435889
 H         4.795797        -0.869835         1.692309
 H         4.431617         1.134399         0.542161
 H         4.282404        -1.341733        -0.611058
