19
Iteration:  4425charge 0 multiplicity 1
 C         0.201444         0.157759        -0.290080
 C         1.448397        -0.208408         0.358579
 C         1.301671        -0.682461         1.779777
 C         2.564738        -1.267295         2.315352
 C         3.715810        -0.798375         1.433700
 C         3.603291         0.370097         0.650696
 O         2.347319         0.941500         0.484263
 C         3.571640        -0.931235        -0.021838
 O         2.201704        -1.214096        -0.352007
 H        -0.509503         0.633846         0.445484
 H         0.221373         0.742223        -1.170736
 H        -0.380658        -0.745693        -0.590057
 H         0.827685         0.127198         2.350375
 H         0.386769        -1.398310         1.777367
 H         2.628824        -0.947340         3.335564
 H         2.634743        -2.389962         2.282545
 H         4.695510        -1.005611         1.894657
 H         4.468798         1.031950         0.571231
 H         4.419090        -1.426100        -0.644661
