19
Iteration:   108
 C         0.208263         0.236761        -0.267357
 C         1.451347        -0.351556         0.383362
 C         1.207513        -1.079574         1.628968
 C         2.582215        -1.305464         2.256479
 C         3.765891        -0.750177         1.467588
 C         3.571165         0.530944         0.665678
 O         2.236576         0.880747         0.841899
 C         3.635282        -0.692500        -0.111639
 O         2.302220        -1.129934        -0.528972
 H        -0.308379         0.945327         0.298483
 H         0.353548         0.753094        -1.180295
 H        -0.514945        -0.501581        -0.390625
 H         0.529960        -0.474787         2.231880
 H         0.678746        -2.036321         1.438877
 H         2.561505        -0.793268         3.256283
 H         2.760649        -2.310236         2.517102
 H         4.720674        -1.072193         1.824224
 H         4.232382         1.391265         0.611934
 H         4.365817        -1.035219        -0.803704
