19
Iteration:  2928charge 0 multiplicity 1
 C         0.199794         0.060678        -0.468955
 C         1.388226        -0.169620         0.437977
 C         1.295765        -0.737536         1.839245
 C         2.641571        -1.443923         2.163511
 C         3.847846        -0.790997         1.576972
 C         3.580348         0.435273         0.705444
 O         2.230362         1.070418         0.617487
 C         3.568072        -0.846822        -0.093629
 O         2.173645        -1.192995        -0.319047
 H        -0.274652         1.042767        -0.372078
 H         0.591099         0.010589        -1.601396
 H        -0.377391        -0.866937        -0.352761
 H         1.257924         0.116003         2.566801
 H         0.455261        -1.433018         1.891365
 H         2.695387        -1.736030         3.203740
 H         2.524396        -2.475335         1.615937
 H         4.922856        -0.865959         1.941010
 H         4.297616         1.191378         0.498154
 H         4.236031        -1.157369        -0.994967
