19
Iteration:  4120charge 0 multiplicity 1
 C         0.115049         0.151735        -0.292732
 C         1.447502        -0.214637         0.359120
 C         1.262226        -0.731141         1.762171
 C         2.573649        -1.277130         2.257952
 C         3.777401        -0.787757         1.529773
 C         3.601117         0.405215         0.605091
 O         2.373277         1.002085         0.494866
 C         3.534192        -0.971201         0.030589
 O         2.245448        -1.227155        -0.336001
 H        -0.403154         0.983832         0.158159
 H         0.361248         0.401501        -1.394443
 H        -0.649768        -0.606457        -0.259428
 H         1.043244         0.050699         2.454399
 H         0.355162        -1.519164         1.655046
 H         2.712390        -1.096990         3.292838
 H         2.532963        -2.420263         2.186786
 H         4.791865        -0.852614         1.964128
 H         4.384588         1.099359         0.196236
 H         4.299883        -1.397567        -0.731531
