19
Iteration:  3407charge 0 multiplicity 1
 C         0.266970         0.159943        -0.375746
 C         1.410447        -0.179989         0.398043
 C         1.261638        -0.759108         1.878545
 C         2.660678        -1.410780         2.262509
 C         3.744885        -0.724602         1.495662
 C         3.563881         0.451266         0.606836
 O         2.249651         0.964122         0.425312
 C         3.577909        -0.911887         0.034090
 O         2.217494        -1.219471        -0.321082
 H        -0.457652         0.741151         0.300918
 H         0.467971         0.821003        -1.186392
 H        -0.453887        -0.637264        -0.682944
 H         1.031054         0.109939         2.450708
 H         0.476554        -1.588849         2.066280
 H         2.739116        -1.494768         3.367852
 H         2.497524        -2.413842         1.873521
 H         4.765169        -0.824780         1.840274
 H         4.392146         1.051198         0.517119
 H         4.287938        -1.233751        -0.729546
