19
Iteration:  2850charge 0 multiplicity 1
 C         0.070044         0.233794        -0.178677
 C         1.427395        -0.220209         0.387415
 C         1.242350        -1.113813         1.647716
 C         2.573913        -1.084976         2.419951
 C         3.777584        -0.835856         1.553176
 C         3.674932         0.417239         0.650074
 O         2.324328         0.960923         0.535506
 C         3.557012        -0.964136        -0.043718
 O         2.286290        -1.080966        -0.560039
 H        -0.461693         0.669415         0.708793
 H         0.394448         0.961864        -0.933535
 H        -0.582237        -0.562554        -0.647575
 H         0.330117        -0.864781         2.193858
 H         1.101597        -2.121456         1.260221
 H         2.588642        -0.316225         3.141471
 H         2.498413        -2.098153         2.957828
 H         4.778591        -1.030090         1.824219
 H         4.425978         1.210838         0.411723
 H         4.339146        -1.169179        -0.675895
