19
Iteration:  1150charge 0 multiplicity 1
 C         0.102937         0.053232        -0.214600
 C         1.482016        -0.180447         0.350129
 C         1.266608        -0.970397         1.627798
 C         2.561930        -1.458791         2.334149
 C         3.782031        -0.863370         1.439164
 C         3.575249         0.540250         0.824750
 O         2.271450         1.082927         0.540740
 C         3.611746        -0.768345        -0.029522
 O         2.296383        -1.046723        -0.494535
 H        -0.506266         0.641154         0.505835
 H        -0.024058         0.527063        -1.152625
 H        -0.241840        -0.947171        -0.425635
 H         0.507704        -0.513290         2.182222
 H         0.702213        -1.909327         1.407250
 H         2.887491        -1.237290         3.380147
 H         2.530226        -2.639134         2.482473
 H         4.772931        -0.951582         1.828997
 H         4.409078         1.278218         0.909849
 H         4.348165        -1.096876        -0.760149
