19
Iteration:  1682charge 0 multiplicity 1
 C         0.155363         0.249905        -0.209752
 C         1.457736        -0.300563         0.310132
 C         1.249633        -1.199082         1.556065
 C         2.541740        -1.114144         2.441665
 C         3.768865        -0.789650         1.506580
 C         3.616954         0.498947         0.671196
 O         2.295868         0.873088         0.771365
 C         3.576891        -0.938789        -0.081897
 O         2.246686        -0.982651        -0.603836
 H        -0.388790         0.804746         0.530182
 H         0.277611         0.695595        -1.232277
 H        -0.504667        -0.474056        -0.591635
 H         0.306750        -0.901149         2.157432
 H         1.173956        -2.225176         1.255263
 H         2.694401        -0.359916         3.221905
 H         2.963002        -2.006577         3.051312
 H         4.856713        -0.901638         1.830566
 H         4.314014         1.362927         0.586247
 H         4.276673        -1.178537        -0.733468
