19
Iteration:  2335
 C         0.158948         0.168253        -0.332061
 C         1.440787        -0.195493         0.403369
 C         1.306918        -1.075401         1.662407
 C         2.600047        -1.126103         2.430398
 C         3.718083        -0.924295         1.486596
 C         3.628424         0.413955         0.720074
 O         2.305574         0.966920         0.660969
 C         3.513110        -0.853913        -0.098884
 O         2.238974        -0.998442        -0.549376
 H        -0.425758         0.873844         0.281021
 H         0.364415         0.433364        -1.408524
 H        -0.472797        -0.778487        -0.395313
 H         0.447978        -0.849562         2.366632
 H         1.210379        -2.161192         1.233348
 H         2.671910        -0.299087         3.278944
 H         2.775898        -2.168100         2.934787
 H         4.763936        -1.251999         1.769577
 H         4.388343         1.106989         0.851539
 H         4.224002        -1.332829        -0.876971
