19
Iteration:  2344charge 0 multiplicity 1
 C         0.174942         0.176326        -0.401776
 C         1.385386        -0.198939         0.453022
 C         1.239192        -1.108041         1.677348
 C         2.637912        -1.100283         2.478885
 C         3.769219        -1.000325         1.401754
 C         3.654046         0.450878         0.691999
 O         2.287046         0.944433         0.687894
 C         3.561614        -0.854610        -0.070006
 O         2.213174        -1.002212        -0.521987
 H        -0.281972         1.045012         0.100552
 H         0.317832         0.607897        -1.368394
 H        -0.628603        -0.628117        -0.461083
 H         0.351500        -1.109050         2.263408
 H         1.237662        -2.109787         1.221859
 H         2.777064        -0.216441         3.064676
 H         2.683105        -2.055015         3.184391
 H         4.774286        -1.207031         1.857883
 H         4.335363         1.264245         0.658196
 H         4.418482        -1.101554        -0.863942
