19
Iteration:  2866
 C         0.106875         0.271053        -0.233790
 C         1.484755        -0.248853         0.260627
 C         1.308285        -1.023806         1.652555
 C         2.635378        -1.210816         2.508089
 C         3.734422        -0.826320         1.487620
 C         3.597245         0.431024         0.647853
 O         2.233399         0.927672         0.545425
 C         3.609105        -0.927293         0.049679
 O         2.265054        -1.056168        -0.575966
 H        -0.369050         0.781643         0.591389
 H         0.020607         0.939638        -1.128878
 H        -0.530893        -0.584357        -0.327219
 H         0.642162        -0.439636         2.312639
 H         0.743342        -1.958698         1.488494
 H         2.599541        -0.526976         3.438787
 H         2.932035        -2.157100         2.847284
 H         4.764488        -1.168486         1.822463
 H         4.323983         1.209160         0.614878
 H         4.246029        -1.673904        -0.569019
