19
Iteration:   906charge 0 multiplicity 1
 C         0.051314         0.076690        -0.214152
 C         1.431523        -0.164304         0.359972
 C         1.216183        -0.990860         1.647545
 C         2.628566        -1.523748         2.161079
 C         3.771078        -0.710714         1.543778
 C         3.540630         0.504235         0.737676
 O         2.281891         1.001370         0.594092
 C         3.675848        -0.709259        -0.008297
 O         2.360862        -1.076263        -0.417099
 H        -0.672016         0.357579         0.570639
 H        -0.000532         0.772179        -1.042534
 H        -0.381059        -0.802652        -0.597323
 H         0.809636        -0.354610         2.376526
 H         0.606348        -1.844400         1.182941
 H         2.512960        -1.552202         3.250773
 H         2.622556        -2.552886         1.780715
 H         4.676728        -0.912923         2.010674
 H         4.403858         1.271680         0.803568
 H         4.420814        -1.014556        -0.811208
