19
Iteration:  3831charge 0 multiplicity 1
 C         0.302528         0.127479        -0.409759
 C         1.434127        -0.203051         0.425216
 C         1.286193        -0.717284         1.844332
 C         2.622529        -1.370658         2.317898
 C         3.773741        -0.792053         1.480404
 C         3.651504         0.347150         0.594418
 O         2.210706         1.012296         0.556585
 C         3.502956        -1.001411        -0.088374
 O         2.178573        -1.093201        -0.330812
 H        -0.238639         0.978434        -0.156821
 H         0.608557         0.333644        -1.478730
 H        -0.447624        -0.638157        -0.469742
 H         0.806878         0.118605         2.555835
 H         0.603121        -1.523985         1.953069
 H         2.740206        -1.162264         3.384635
 H         2.744849        -2.464919         2.211804
 H         4.766289        -0.901116         1.919928
 H         4.299713         1.151817         0.555650
 H         4.059843        -1.334678        -0.968890
