19
Iteration:  3285
 C         0.223937         0.317275        -0.361227
 C         1.419893        -0.336474         0.345801
 C         1.206568        -1.111274         1.819023
 C         2.623077        -0.995872         2.474844
 C         3.817201        -0.871601         1.410036
 C         3.648678         0.441343         0.570495
 O         2.231364         0.869699         0.708638
 C         3.555185        -0.908864        -0.026042
 O         2.215987        -1.133385        -0.528044
 H         0.046466         1.274509         0.158409
 H         0.435108         0.582506        -1.425486
 H        -0.731601        -0.217575        -0.419051
 H         0.428119        -0.665898         2.376742
 H         0.966653        -2.112075         1.406670
 H         2.558395        -0.072316         3.088551
 H         2.727780        -1.902041         3.034933
 H         4.844158        -1.037229         1.725996
 H         4.344990         1.249850         0.087981
 H         4.343189        -1.361227        -0.630629
