19
Iteration:  1490charge 0 multiplicity 1
 C         0.163261         0.262345        -0.332894
 C         1.466333        -0.199389         0.410429
 C         1.257525        -1.137941         1.692143
 C         2.691925        -1.281404         2.367984
 C         3.760970        -0.863967         1.485258
 C         3.590248         0.491881         0.731267
 O         2.172979         0.942623         0.634753
 C         3.588998        -0.812525        -0.091256
 O         2.246158        -1.066273        -0.501769
 H        -0.457451         0.715466         0.425654
 H         0.529193         0.887552        -1.198072
 H        -0.431674        -0.565905        -0.685408
 H         0.459197        -0.687672         2.302105
 H         0.879768        -2.169046         1.233999
 H         2.698626        -0.540508         3.102330
 H         2.896924        -2.283949         2.736628
 H         4.881987        -0.915306         1.810880
 H         4.356145         1.252842         0.725926
 H         4.303820        -1.277763        -0.651689
