19
Iteration:  4255charge 0 multiplicity 1
 C         0.135099         0.183534        -0.338385
 C         1.416304        -0.223158         0.368268
 C         1.262623        -0.867270         1.696457
 C         2.602006        -1.050802         2.509296
 C         3.764070        -0.920104         1.503261
 C         3.683101         0.281816         0.607956
 O         2.349658         0.966816         0.587983
 C         3.534418        -1.033403        -0.038081
 O         2.202064        -1.064006        -0.528463
 H        -0.476345         0.741064         0.428491
 H         0.242479         0.654449        -1.255710
 H        -0.331227        -0.831747        -0.478808
 H         0.721435        -0.226615         2.544181
 H         0.580440        -1.728443         1.622777
 H         2.716389        -0.090175         3.038821
 H         2.486009        -1.940222         3.067247
 H         4.832830        -0.966268         1.815417
 H         4.420494         1.029659         0.339426
 H         4.268916        -1.592767        -0.699625
