19
Iteration:  1841charge 0 multiplicity 1
 C         0.133777         0.183908        -0.321449
 C         1.464666        -0.178669         0.374920
 C         1.261382        -0.935825         1.742770
 C         2.626291        -1.485487         2.181848
 C         3.819172        -0.750435         1.526513
 C         3.574487         0.499076         0.735876
 O         2.193412         0.982344         0.535713
 C         3.588502        -0.814015         0.008386
 O         2.287132        -1.116348        -0.379540
 H        -0.511400         0.656455         0.429761
 H         0.351738         0.718207        -1.327201
 H        -0.295610        -0.794896        -0.562106
 H         0.765454        -0.366020         2.452767
 H         0.551214        -1.788670         1.623471
 H         2.771434        -1.488596         3.306363
 H         2.638852        -2.475486         1.758257
 H         4.844496        -0.964399         1.897069
 H         4.265986         1.398527         0.743537
 H         4.367155        -1.024687        -0.720039
