19
Iteration:   472charge 0 multiplicity 1
 C         0.198865         0.109212        -0.370145
 C         1.450829        -0.228761         0.355296
 C         1.303161        -1.095099         1.584535
 C         2.699467        -1.409312         2.330615
 C         3.757283        -0.803387         1.532978
 C         3.527236         0.488447         0.763335
 O         2.202705         0.932785         0.760603
 C         3.534444        -0.752454        -0.020794
 O         2.268104        -0.893473        -0.528111
 H        -0.238672         0.875354         0.221000
 H         0.276115         0.419883        -1.429399
 H        -0.480158        -0.750848        -0.402068
 H         0.523058        -0.568489         2.183896
 H         0.758961        -2.027649         1.295150
 H         2.853929        -1.179363         3.380624
 H         2.789647        -2.468207         2.429413
 H         4.888167        -0.909309         1.766636
 H         4.296876         1.310304         0.648920
 H         4.200060        -1.081095        -0.833331
