19
Iteration:  4277
 C         0.170458         0.045503        -0.290995
 C         1.502416        -0.140664         0.419964
 C         1.178453        -0.832282         1.734944
 C         2.514661        -0.991592         2.379876
 C         3.707694        -0.900259         1.432144
 C         3.789502         0.369800         0.588054
 O         2.436206         0.959384         0.612072
 C         3.486706        -1.003109        -0.010093
 O         2.168367        -1.100598        -0.482045
 H        -0.534886         0.747163         0.242857
 H         0.056364         0.306490        -1.284285
 H        -0.332120        -0.966167        -0.229478
 H         0.339682        -0.363908         2.444276
 H         0.907547        -1.856328         1.504251
 H         2.777789        -0.316460         3.194806
 H         2.398455        -2.008433         2.644647
 H         4.616167        -1.495755         1.661590
 H         4.641867         1.041338         0.449395
 H         4.320383        -1.446779        -0.671087
