19
Iteration:  2358
 C         0.184110         0.308399        -0.393834
 C         1.430004        -0.243191         0.384814
 C         1.254098        -1.198846         1.693217
 C         2.614351        -1.064547         2.406896
 C         3.851339        -0.933256         1.431946
 C         3.568175         0.411689         0.650839
 O         2.226357         0.882197         0.781833
 C         3.564779        -0.848552        -0.076753
 O         2.229415        -1.018646        -0.478936
 H        -0.299086         1.198874         0.048574
 H         0.734977         0.377966        -1.406985
 H        -0.535601        -0.510159        -0.562849
 H         0.429126        -0.723112         2.352624
 H         0.982561        -2.269221         1.282764
 H         2.541798        -0.005876         2.978287
 H         2.808957        -1.849993         3.224218
 H         4.899058        -1.247771         1.630452
 H         4.296442         1.131575         0.352547
 H         4.301229        -1.158065        -0.818630
