19
Iteration:  4190charge 0 multiplicity 1
 C         0.120299         0.185596        -0.383720
 C         1.420288        -0.159303         0.407608
 C         1.217890        -0.829004         1.699177
 C         2.601968        -1.125186         2.368218
 C         3.787332        -0.805210         1.443228
 C         3.698416         0.419422         0.542801
 O         2.375056         0.881791         0.616527
 C         3.541462        -0.963415        -0.005458
 O         2.190531        -1.184618        -0.332674
 H        -0.418839         0.979252         0.209014
 H         0.371891         0.534813        -1.322624
 H        -0.553048        -0.707850        -0.360019
 H         0.369884        -0.257758         2.285039
 H         0.845668        -1.815578         1.514554
 H         2.585168        -0.667630         3.428156
 H         2.573602        -2.192780         2.565276
 H         4.784628        -1.159090         1.681661
 H         4.595362         0.946113         0.279616
 H         4.205771        -1.544265        -0.596241
