19
Iteration:  3602
 C         0.205822         0.085908        -0.376826
 C         1.474335        -0.141728         0.377914
 C         1.277554        -0.763393         1.858736
 C         2.571640        -1.477925         2.301020
 C         3.797263        -0.783972         1.495694
 C         3.586625         0.522467         0.661535
 O         2.332375         0.965867         0.468045
 C         3.536098        -0.897154         0.001523
 O         2.127968        -1.172031        -0.377785
 H        -0.529934         0.769355         0.055612
 H         0.477524         0.465039        -1.361443
 H        -0.300023        -0.865292        -0.570945
 H         1.131211         0.084688         2.564471
 H         0.397561        -1.402314         1.888555
 H         2.897017        -1.167143         3.312592
 H         2.676936        -2.582510         2.288879
 H         4.866413        -0.736553         1.913561
 H         4.465241         1.291154         0.550076
 H         4.213732        -1.146240        -0.836061
