19
Iteration:  1455charge 0 multiplicity 1
 C         0.258263         0.283534        -0.286070
 C         1.444734        -0.279438         0.372439
 C         1.246550        -1.227117         1.591339
 C         2.637047        -1.171031         2.376071
 C         3.830205        -0.736400         1.496329
 C         3.613755         0.442966         0.617574
 O         2.178963         0.879849         0.793261
 C         3.551888        -0.819075        -0.038928
 O         2.185552        -1.073546        -0.574198
 H        -0.118345         1.104031         0.382087
 H         0.438844         1.014130        -1.129232
 H        -0.499167        -0.427124        -0.605129
 H         0.508171        -0.832675         2.279169
 H         0.917562        -2.340916         1.328245
 H         2.497590        -0.497219         3.182908
 H         2.950572        -1.964714         2.962806
 H         4.842932        -0.898491         1.952290
 H         4.276042         1.233629         0.287610
 H         4.416457        -1.273423        -0.605902
