19
Iteration:   729charge 0 multiplicity 1
 C         0.150856         0.053685        -0.415063
 C         1.419201        -0.200701         0.418680
 C         1.291668        -1.159996         1.621387
 C         2.637607        -1.272037         2.363339
 C         3.773100        -0.886077         1.389088
 C         3.599272         0.492375         0.780852
 O         2.255928         0.956080         0.877939
 C         3.558243        -0.775606        -0.071232
 O         2.241839        -0.893617        -0.560458
 H        -0.606327         0.647406         0.077756
 H         0.541086         0.686536        -1.268366
 H        -0.178853        -0.945390        -0.818375
 H         0.318164        -0.985546         2.178744
 H         0.912481        -2.220525         1.201056
 H         2.699412        -0.523417         3.148992
 H         2.783151        -2.177707         2.881994
 H         4.866009        -1.011464         1.739356
 H         4.253441         1.280454         0.593452
 H         4.344124        -0.817955        -0.765036
