19
Iteration:   370
 C         0.224122        -0.018629        -0.314430
 C         1.455159        -0.259046         0.414282
 C         1.232338        -0.919570         1.730473
 C         2.632338        -1.431714         2.243275
 C         3.763612        -0.988537         1.412085
 C         3.500925         0.493970         0.815017
 O         2.179983         0.962182         0.716477
 C         3.622201        -0.653004        -0.090839
 O         2.332234        -0.917897        -0.512694
 H        -0.599783         0.431913         0.260834
 H         0.360283         0.682251        -1.076413
 H        -0.250656        -0.837844        -0.818973
 H         1.031280        -0.088104         2.353908
 H         0.410114        -1.596630         1.709386
 H         2.708920        -1.063284         3.198122
 H         2.722193        -2.477796         2.207753
 H         4.825871        -1.169836         1.608889
 H         4.150283         1.347496         0.800837
 H         4.335891        -0.671546        -0.933452
