19
Iteration:  1128charge 0 multiplicity 1
 C         0.164952         0.189843        -0.273974
 C         1.420398        -0.244838         0.412903
 C         1.277431        -0.949046         1.716724
 C         2.604507        -1.482558         2.188395
 C         3.773951        -0.752356         1.470280
 C         3.495156         0.489785         0.754292
 O         2.180884         0.948875         0.571434
 C         3.671673        -0.769946        -0.035665
 O         2.343318        -1.083583        -0.414223
 H        -0.505423         0.805693         0.331759
 H         0.371839         0.815320        -1.123416
 H        -0.336737        -0.661557        -0.736908
 H         0.824398        -0.336762         2.460561
 H         0.445917        -1.723475         1.671027
 H         2.668608        -1.346368         3.307728
 H         2.902633        -2.606617         2.115333
 H         4.727320        -0.970107         1.945393
 H         4.219732         1.318627         0.605837
 H         4.455483        -0.964261        -0.802338
