19
Iteration:  1536charge 0 multiplicity 1
 C         0.104275        -0.043556        -0.330993
 C         1.441263        -0.167423         0.341500
 C         1.241035        -0.858945         1.785015
 C         2.566011        -1.429742         2.263897
 C         3.750103        -0.824163         1.486955
 C         3.585204         0.528798         0.749838
 O         2.323397         0.965634         0.702897
 C         3.606007        -0.906540        -0.046336
 O         2.278437        -0.909325        -0.593779
 H        -0.602630         0.361143         0.369252
 H         0.156579         0.422563        -1.277680
 H        -0.233904        -1.105693        -0.442489
 H         0.975729        -0.011885         2.537258
 H         0.510454        -1.651438         2.003794
 H         2.660908        -1.075073         3.271809
 H         2.728655        -2.498870         2.103609
 H         4.809333        -1.034588         1.623139
 H         4.403199         1.303699         0.767969
 H         4.493617        -1.237314        -0.619912
