19
Iteration:  4354charge 0 multiplicity 1
 C         0.203098         0.200344        -0.338288
 C         1.488322        -0.185537         0.414267
 C         1.160068        -0.786337         1.746625
 C         2.580319        -1.235588         2.298356
 C         3.809152        -0.823490         1.473708
 C         3.610927         0.387301         0.522647
 O         2.306013         0.969654         0.516508
 C         3.576332        -0.961771        -0.007037
 O         2.229589        -1.201678        -0.262590
 H        -0.232335         1.033592         0.226450
 H         0.435833         0.597263        -1.315687
 H        -0.584118        -0.545452        -0.475580
 H         0.538795        -0.172269         2.516528
 H         0.568100        -1.659993         1.730870
 H         2.796655        -0.858997         3.324837
 H         2.587366        -2.321092         2.348764
 H         4.718364        -1.092807         2.036125
 H         4.366213         1.034164         0.102175
 H         4.157829        -1.498072        -0.792725
