19
Iteration:  3462charge 0 multiplicity 1
 C         0.164703         0.135912        -0.257491
 C         1.458743        -0.277378         0.348169
 C         1.262454        -0.833969         1.749627
 C         2.597879        -1.147250         2.421080
 C         3.747284        -0.924223         1.430487
 C         3.627652         0.437136         0.664915
 O         2.265264         0.902170         0.569505
 C         3.640257        -0.884481        -0.033399
 O         2.206571        -1.085695        -0.535104
 H        -0.181875         1.108245         0.226748
 H         0.433250         0.213501        -1.328214
 H        -0.621289        -0.663951        -0.050969
 H         0.642591        -0.114806         2.252967
 H         0.654618        -1.848605         1.668504
 H         2.707687        -0.379187         3.221766
 H         2.451050        -2.055709         2.994750
 H         4.743402        -1.329897         1.678946
 H         4.370212         1.222144         0.672582
 H         4.322144        -1.342651        -0.690312
