19
Iteration:  2803charge 0 multiplicity 1
 C         0.128712         0.242146        -0.375336
 C         1.381548        -0.333977         0.325361
 C         1.332048        -1.064199         1.757636
 C         2.675828        -1.009121         2.458142
 C         3.782608        -0.905487         1.519327
 C         3.579890         0.394451         0.628219
 O         2.298909         0.867805         0.763733
 C         3.554040        -0.897215        -0.067840
 O         2.168698        -0.989581        -0.613909
 H        -0.568549         0.776410         0.262337
 H         0.603789         0.773334        -1.137991
 H        -0.328799        -0.574031        -0.918508
 H         0.464484        -0.592280         2.228600
 H         0.998624        -2.148938         1.462378
 H         2.673991        -0.181972         3.176618
 H         2.805778        -1.921132         3.001379
 H         4.758717        -1.236806         1.926324
 H         4.412044         1.011500         0.354303
 H         4.535010        -1.133986        -0.612797
