19
Iteration:  3262charge 0 multiplicity 1
 C         0.227631         0.206554        -0.342964
 C         1.456633        -0.200948         0.412154
 C         1.325453        -1.101409         1.686731
 C         2.598550        -1.037499         2.456258
 C         3.760480        -0.870158         1.492009
 C         3.648183         0.384428         0.595002
 O         2.320696         0.923936         0.643814
 C         3.490023        -0.962785        -0.064197
 O         2.126717        -1.047193        -0.476824
 H        -0.317729         1.024941         0.073148
 H         0.429292         0.428457        -1.458215
 H        -0.421153        -0.649462        -0.263961
 H         0.461307        -0.685401         2.229849
 H         1.229286        -2.109858         1.259050
 H         2.436188        -0.088812         3.004931
 H         2.860580        -1.893740         3.015164
 H         4.745784        -0.988310         1.963841
 H         4.276945         1.334672         0.491466
 H         4.113847        -1.476629        -0.719781
