19
Iteration:  2837charge 0 multiplicity 1
 C         0.190394         0.240485        -0.180727
 C         1.458582        -0.210869         0.407616
 C         1.288775        -1.141301         1.589230
 C         2.525571        -1.014348         2.419724
 C         3.735177        -0.836005         1.467585
 C         3.596697         0.365667         0.625358
 O         2.353135         0.888475         0.605776
 C         3.617802        -0.883712        -0.066614
 O         2.176181        -1.072130        -0.493039
 H        -0.583856         0.655672         0.509722
 H         0.210061         0.970882        -0.904652
 H        -0.176098        -0.697539        -0.676620
 H         0.451772        -0.923020         2.263457
 H         1.159218        -2.153348         1.034324
 H         2.387633        -0.140772         3.016435
 H         2.896762        -1.815287         3.095335
 H         4.579323        -1.038987         2.047198
 H         4.451051         1.074571         0.563217
 H         4.257970        -1.289885        -0.815634
