19
Iteration:    80
 C         0.163844         0.371190        -0.304921
 C         1.379279        -0.279274         0.406541
 C         1.362507        -1.243130         1.549901
 C         2.690376        -1.236898         2.355166
 C         3.818418        -0.813319         1.481581
 C         3.508382         0.452149         0.744358
 O         2.167479         0.915274         0.689110
 C         3.603129        -0.845698        -0.040814
 O         2.266253        -1.022090        -0.472906
 H        -0.552959         1.023424         0.296549
 H         0.480758         1.018103        -1.152786
 H        -0.645765        -0.300907        -0.760075
 H         0.499107        -1.081764         2.231793
 H         1.174454        -2.229530         1.145748
 H         2.557368        -0.485452         3.121890
 H         2.855136        -2.226194         2.890184
 H         4.873908        -0.953088         1.707596
 H         4.237763         1.313841         0.624922
 H         4.325537        -1.286683        -0.776987
