19
Iteration:  1434
 C         0.112033         0.181619        -0.271566
 C         1.465205        -0.285893         0.393364
 C         1.286947        -1.066669         1.670439
 C         2.612509        -1.136755         2.361172
 C         3.732963        -0.930603         1.433186
 C         3.563034         0.483664         0.748606
 O         2.254555         0.882441         0.716504
 C         3.570166        -0.839349        -0.108733
 O         2.309197        -0.984467        -0.557153
 H        -0.318093         1.092476         0.219930
 H         0.282109         0.760537        -1.242443
 H        -0.559166        -0.647370        -0.434161
 H         0.355631        -0.874141         2.175701
 H         1.191190        -2.232693         1.307693
 H         2.713764        -0.359869         3.083261
 H         2.754109        -1.991893         3.015401
 H         4.818758        -1.173231         1.686418
 H         4.302325         1.259330         0.850174
 H         4.382419        -1.129276        -0.843673
