19
Iteration:  3567
 C         0.129478         0.101117        -0.344917
 C         1.451646        -0.256295         0.357090
 C         1.241409        -0.839694         1.753230
 C         2.625903        -1.212595         2.393290
 C         3.780387        -0.880629         1.465666
 C         3.622622         0.478459         0.638380
 O         2.356234         0.995416         0.614973
 C         3.565289        -0.958987        -0.012940
 O         2.173131        -1.132159        -0.506245
 H        -0.438337         0.608585         0.478236
 H         0.307605         0.791522        -1.111686
 H        -0.302048        -0.841976        -0.697668
 H         0.696852        -0.021876         2.337158
 H         0.573871        -1.611732         1.661413
 H         2.711802        -0.503956         3.293695
 H         2.686228        -2.264504         2.758103
 H         4.750919        -1.036433         1.924331
 H         4.420687         1.145204         0.501226
 H         4.180966        -1.312114        -0.800935
