19
Iteration:   637charge 0 multiplicity 1
 C         0.188758         0.027466        -0.370088
 C         1.480032        -0.169419         0.403925
 C         1.295284        -0.953263         1.760059
 C         2.642137        -1.620806         2.171861
 C         3.803074        -0.890194         1.481675
 C         3.470265         0.552829         0.780509
 O         2.110258         1.086491         0.592489
 C         3.655230        -0.667535        -0.019282
 O         2.321967        -1.038674        -0.423313
 H        -0.484833         0.755422         0.119176
 H         0.326586         0.615259        -1.266495
 H        -0.429136        -0.803743        -0.604102
 H         1.015549        -0.188850         2.561884
 H         0.507590        -1.752905         1.826125
 H         2.803451        -1.679824         3.279023
 H         2.572436        -2.743164         1.926124
 H         4.729861        -0.854818         1.931617
 H         4.300234         1.223759         0.955079
 H         4.382098        -0.733217        -0.853847
