19
Iteration:   295
 C         0.114263         0.286349        -0.161187
 C         1.487658        -0.282353         0.358595
 C         1.381876        -1.319765         1.538185
 C         2.561613        -1.153851         2.424926
 C         3.717616        -0.830166         1.475095
 C         3.587629         0.433368         0.800664
 O         2.195081         0.893436         0.732059
 C         3.584843        -0.785154        -0.127732
 O         2.310851        -0.971745        -0.644754
 H        -0.369458         1.125028         0.380077
 H         0.205909         0.658999        -1.136895
 H        -0.677833        -0.456263        -0.246612
 H         0.388164        -1.136434         1.987523
 H         1.387942        -2.334397         1.083411
 H         2.438684        -0.175509         3.092351
 H         2.812607        -2.028123         3.034522
 H         4.828048        -1.038121         1.764719
 H         4.303300         1.276112         0.939133
 H         4.419545        -0.877693        -0.914345
