19
Iteration:  3071charge 0 multiplicity 1
 C         0.198784         0.235125        -0.268564
 C         1.404487        -0.263320         0.399283
 C         1.229258        -1.105710         1.661170
 C         2.604512        -1.064623         2.451447
 C         3.775394        -0.846025         1.478778
 C         3.671132         0.421251         0.546237
 O         2.236597         0.952453         0.658231
 C         3.524616        -0.904926        -0.011572
 O         2.253667        -1.111433        -0.544107
 H        -0.019810         1.152525         0.287730
 H         0.594656         0.650741        -1.187758
 H        -0.581692        -0.512522        -0.431363
 H         0.379587        -0.703135         2.317615
 H         1.043660        -2.158908         1.437566
 H         2.603847        -0.344577         3.232471
 H         2.730069        -2.045682         2.955275
 H         4.728060        -1.148316         1.871324
 H         4.468152         1.145847         0.211290
 H         4.364570        -1.211624        -0.519104
