19
Iteration:  3296charge 0 multiplicity 1
 C         0.202620         0.358154        -0.368471
 C         1.432474        -0.284043         0.357947
 C         1.272590        -1.026903         1.688672
 C         2.626571        -1.063420         2.476433
 C         3.779910        -0.868592         1.493592
 C         3.538708         0.466645         0.543998
 O         2.244107         0.819892         0.688712
 C         3.556809        -0.908147        -0.076504
 O         2.247431        -1.188648        -0.499949
 H        -0.009067         1.243645         0.265396
 H         0.443957         0.625385        -1.406322
 H        -0.579576        -0.366130        -0.149233
 H         0.553434        -0.533403         2.280684
 H         0.926082        -2.090068         1.808780
 H         2.781935        -0.193364         3.166917
 H         2.941091        -1.818096         3.155254
 H         4.730028        -1.218460         1.898403
 H         4.209561         1.453793         0.455550
 H         4.275587        -1.355213        -0.803675
