19
Iteration:  2964charge 0 multiplicity 1
 C         0.144024         0.133007        -0.258447
 C         1.454828        -0.254758         0.355278
 C         1.293765        -0.800803         1.767697
 C         2.558997        -1.508210         2.305637
 C         3.712386        -0.793284         1.484019
 C         3.541176         0.499878         0.677014
 O         2.238922         1.015310         0.432846
 C         3.708931        -0.885048        -0.070458
 O         2.296226        -1.116236        -0.378771
 H        -0.432320         0.763253         0.471258
 H         0.377056         0.641733        -1.182416
 H        -0.570100        -0.677200        -0.474008
 H         1.231974         0.161132         2.299099
 H         0.448201        -1.254349         2.098100
 H         2.698113        -1.230030         3.417802
 H         2.584975        -2.582990         2.173932
 H         4.578061        -0.886052         2.111804
 H         4.226962         1.365093         0.841984
 H         4.385141        -1.432678        -0.676541
