19
Iteration:  2647
 C         0.146563         0.182241        -0.282761
 C         1.453568        -0.201389         0.405344
 C         1.258594        -0.938218         1.743613
 C         2.602703        -1.287702         2.383405
 C         3.745334        -0.807818         1.446414
 C         3.616841         0.447430         0.667289
 O         2.223056         0.953689         0.563837
 C         3.598701        -0.896700        -0.029890
 O         2.292258        -1.102159        -0.520655
 H        -0.487936         0.585831         0.435753
 H         0.289590         0.973114        -0.996470
 H        -0.213698        -0.671523        -0.779030
 H         0.753563        -0.297548         2.523473
 H         0.676166        -1.877825         1.539997
 H         2.733372        -0.759720         3.374397
 H         2.666012        -2.319615         2.554002
 H         4.649110        -1.264321         1.828194
 H         4.346328         1.290718         0.531521
 H         4.332725        -1.312295        -0.623894
