19
Iteration:  4135charge 0 multiplicity 1
 C         0.139576         0.116379        -0.336748
 C         1.437598        -0.236799         0.334355
 C         1.262938        -0.701144         1.808419
 C         2.606254        -1.354530         2.466473
 C         3.780215        -0.845137         1.538479
 C         3.639477         0.448782         0.636273
 O         2.303911         0.939422         0.431998
 C         3.611381        -0.935879        -0.017871
 O         2.174999        -1.114124        -0.486906
 H        -0.100037         1.023546         0.229638
 H         0.205996         0.287141        -1.385043
 H        -0.515998        -0.725123        -0.063100
 H         0.987187         0.314502         2.271287
 H         0.422943        -1.319152         2.059930
 H         2.624913        -0.867669         3.490473
 H         2.516553        -2.460622         2.435521
 H         4.766946        -1.183418         1.831198
 H         4.518716         1.107208         0.667990
 H         4.238846        -1.339650        -0.736491
