19
Iteration:  3053
 C         0.170714         0.348579        -0.442233
 C         1.393089        -0.299605         0.359311
 C         1.285726        -1.141062         1.721734
 C         2.647838        -1.007962         2.418371
 C         3.829190        -0.828928         1.453886
 C         3.541498         0.404608         0.665865
 O         2.280861         0.831009         0.760372
 C         3.583283        -0.962115        -0.080462
 O         2.200060        -1.090694        -0.483749
 H        -0.424425         1.007392         0.270874
 H         0.535460         0.887008        -1.295515
 H        -0.555837        -0.502099        -0.661148
 H         0.569795        -0.583967         2.309721
 H         0.974270        -2.118521         1.438832
 H         2.649816         0.070813         2.857580
 H         2.861667        -1.691661         3.228793
 H         4.865704        -1.013330         1.741704
 H         4.277787         1.249978         0.550060
 H         4.190947        -1.380153        -0.935040
