19
Iteration:  2775
 C         0.197172         0.162517        -0.312768
 C         1.444795        -0.236262         0.403857
 C         1.217499        -0.951856         1.739066
 C         2.676441        -1.217497         2.368744
 C         3.747267        -0.865105         1.401694
 C         3.575506         0.480092         0.700148
 O         2.244259         0.985121         0.637832
 C         3.587566        -0.924543        -0.064346
 O         2.244101        -1.104788        -0.505245
 H        -0.463636         0.911018         0.228256
 H         0.673001         0.605433        -1.236470
 H        -0.474259        -0.762670        -0.469227
 H         0.495071        -0.423428         2.374910
 H         0.653254        -1.802431         1.406751
 H         2.713851        -0.576735         3.276875
 H         2.827813        -2.298101         2.786032
 H         4.712718        -1.192192         1.708073
 H         4.367650         1.290392         0.653613
 H         4.382309        -1.259901        -0.603952
