19
Iteration:  3883
 C         0.123527         0.180632        -0.222474
 C         1.439546        -0.232899         0.357537
 C         1.286259        -0.681998         1.756803
 C         2.550355        -1.348306         2.264589
 C         3.724676        -0.837506         1.474358
 C         3.614891         0.374054         0.653117
 O         2.330285         0.918264         0.440663
 C         3.652250        -0.934176         0.006862
 O         2.225131        -1.161023        -0.368857
 H        -0.499315         0.663097         0.509723
 H         0.313619         0.851431        -1.120464
 H        -0.475268        -0.582057        -0.697924
 H         1.148348         0.297095         2.249935
 H         0.503861        -1.385290         1.964777
 H         2.630802        -0.942100         3.282820
 H         2.501789        -2.410901         2.240645
 H         4.719638        -0.773984         1.960206
 H         4.190120         1.247625         0.574362
 H         4.442114        -1.383049        -0.522606
