19
Iteration:  3829charge 0 multiplicity 1
 C         0.301113         0.115732        -0.410807
 C         1.434661        -0.192072         0.412623
 C         1.280845        -0.713685         1.831769
 C         2.638211        -1.348442         2.324891
 C         3.778051        -0.813978         1.488350
 C         3.642202         0.336755         0.612805
 O         2.205742         1.013466         0.572813
 C         3.506829        -1.002041        -0.107298
 O         2.179333        -1.101248        -0.346395
 H        -0.232028         0.990723        -0.130631
 H         0.543301         0.362767        -1.475288
 H        -0.469406        -0.626540        -0.384009
 H         0.813218         0.095662         2.513590
 H         0.569449        -1.499963         1.965890
 H         2.761628        -1.160206         3.389223
 H         2.632387        -2.405587         2.268130
 H         4.822644        -0.886313         1.893295
 H         4.326990         1.177983         0.506253
 H         4.142441        -1.287822        -0.909339
