19
Iteration:  4071
 C         0.248294         0.223218        -0.432001
 C         1.417954        -0.260156         0.388299
 C         1.349477        -0.759010         1.868092
 C         2.653448        -1.247063         2.370979
 C         3.727986        -0.846666         1.490295
 C         3.599473         0.368693         0.616236
 O         2.243236         0.978813         0.483722
 C         3.523488        -0.991011         0.003627
 O         2.153857        -1.176848        -0.394338
 H        -0.587105         0.660817         0.190884
 H         0.654561         0.878262        -1.186379
 H        -0.354229        -0.600893        -0.907236
 H         1.020589         0.144814         2.497808
 H         0.656880        -1.526252         1.917250
 H         2.898580        -0.802601         3.398446
 H         2.696524        -2.358516         2.378666
 H         4.752158        -1.056622         1.799237
 H         4.373260         1.157452         0.494422
 H         4.344968        -1.245625        -0.596248
