19
Iteration:  1357charge 0 multiplicity 1
 C         0.231877         0.263455        -0.348322
 C         1.412106        -0.238247         0.419016
 C         1.285057        -0.867906         1.716099
 C         2.678445        -1.469261         2.191145
 C         3.758164        -0.804706         1.444428
 C         3.477917         0.513314         0.738459
 O         2.163259         0.911055         0.569117
 C         3.657330        -0.728352        -0.051529
 O         2.273194        -1.212297        -0.324577
 H        -0.405571         0.886742         0.383070
 H         0.513636         0.864566        -1.234461
 H        -0.435534        -0.476628        -0.837735
 H         1.025278        -0.264881         2.548481
 H         0.528397        -1.797568         1.680640
 H         2.723863        -1.390802         3.279232
 H         2.734367        -2.590343         2.304853
 H         4.718278        -0.770962         1.921243
 H         4.240650         1.313112         0.720370
 H         4.417136        -1.032557        -0.903401
