19
Iteration:  4455
 C         0.196736         0.285968        -0.409092
 C         1.405159        -0.119289         0.474836
 C         1.258811        -0.867448         1.824531
 C         2.607238        -1.313438         2.354915
 C         3.805229        -0.802059         1.467171
 C         3.640942         0.403248         0.516389
 O         2.279872         0.953253         0.394871
 C         3.559104        -0.982925         0.074752
 O         2.186815        -1.155453        -0.295020
 H        -0.468594         0.944277         0.120769
 H         0.518670         0.787277        -1.341582
 H        -0.382967        -0.597299        -0.653268
 H         0.588273        -0.414408         2.735488
 H         0.773390        -1.770488         1.518208
 H         2.663678        -1.013965         3.430817
 H         2.794783        -2.357464         2.328510
 H         4.699515        -1.132993         1.994606
 H         4.453119         1.071270         0.193926
 H         4.270513        -1.582132        -0.482660
