19
Iteration:  1767charge 0 multiplicity 1
 C         0.119113        -0.045878        -0.434668
 C         1.439671        -0.184757         0.349416
 C         1.236647        -0.901805         1.739838
 C         2.624627        -1.423701         2.313392
 C         3.752945        -0.903732         1.426616
 C         3.614982         0.441223         0.751976
 O         2.241941         1.059750         0.707713
 C         3.605654        -0.819725        -0.060605
 O         2.288051        -0.932064        -0.460926
 H        -0.324299         0.607629         0.326211
 H         0.309069         0.553594        -1.404877
 H        -0.367594        -0.998232        -0.376909
 H         0.914736        -0.079684         2.547540
 H         0.385941        -1.575922         1.740023
 H         2.847343        -0.983997         3.302162
 H         2.741606        -2.500763         2.256264
 H         4.776739        -1.209659         1.807198
 H         4.377157         1.269967         0.764738
 H         4.193119        -1.113213        -0.857706
