19
Iteration:  2586charge 0 multiplicity 1
 C         0.194453         0.186666        -0.323618
 C         1.447660        -0.280707         0.380002
 C         1.322656        -1.122192         1.632130
 C         2.548882        -1.079675         2.459031
 C         3.805703        -0.823308         1.534827
 C         3.639216         0.427426         0.598153
 O         2.337129         0.932134         0.763008
 C         3.524435        -0.960350        -0.117450
 O         2.136588        -0.958347        -0.550937
 H        -0.458440         0.942710         0.228875
 H         0.467436         0.539868        -1.404424
 H        -0.554254        -0.628202        -0.334087
 H         0.489148        -0.972652         2.250562
 H         1.124186        -2.109516         1.209149
 H         2.492111        -0.275499         3.159955
 H         2.641505        -2.022344         3.119899
 H         4.833728        -0.934247         1.857673
 H         4.449803         1.141253         0.351885
 H         4.196954        -1.487959        -0.702612
