19
Iteration:   246charge 0 multiplicity 1
 C         0.201960         0.062934        -0.359184
 C         1.457966        -0.175707         0.434680
 C         1.306504        -1.061846         1.677520
 C         2.642559        -1.353296         2.381519
 C         3.735659        -0.829777         1.465306
 C         3.567896         0.454892         0.766704
 O         2.268565         0.948204         0.771384
 C         3.572610        -0.745190        -0.145282
 O         2.204113        -0.920891        -0.608683
 H        -0.651242         0.498056         0.187688
 H         0.358884         0.747069        -1.286559
 H        -0.220774        -0.986107        -0.542579
 H         0.487806        -0.733453         2.350779
 H         0.759747        -1.963857         1.371799
 H         2.702686        -1.036962         3.406220
 H         2.774937        -2.464859         2.541541
 H         4.772894        -0.911266         1.791664
 H         4.296397         1.236711         0.726112
 H         4.391732        -1.091009        -0.719501
