19
Iteration:  1623
 C         0.164780         0.093481        -0.324180
 C         1.447777        -0.228583         0.358872
 C         1.235543        -0.942132         1.728746
 C         2.677368        -1.403742         2.302021
 C         3.740329        -0.835859         1.457612
 C         3.570701         0.488365         0.744855
 O         2.243105         0.992026         0.655983
 C         3.573439        -0.807867        -0.063405
 O         2.301490        -1.033266        -0.473633
 H        -0.414233         0.914019         0.131111
 H         0.459607         0.592665        -1.222067
 H        -0.504003        -0.808396        -0.452099
 H         0.651259        -0.219452         2.421997
 H         0.551809        -1.850084         1.658295
 H         2.621127        -0.963938         3.287834
 H         2.693037        -2.461866         2.341756
 H         4.722730        -1.053465         1.816445
 H         4.252243         1.319618         0.545094
 H         4.394209        -1.225464        -0.813603
