19
Iteration:  3144
 C         0.233217         0.073903        -0.399489
 C         1.458656        -0.292371         0.445643
 C         1.224955        -0.727487         1.904160
 C         2.610330        -1.385820         2.181885
 C         3.761123        -0.739181         1.497217
 C         3.502474         0.442802         0.679835
 O         2.306737         1.022279         0.563382
 C         3.578202        -0.915405        -0.115900
 O         2.218716        -1.154059        -0.378975
 H        -0.348758         0.884763         0.034640
 H         0.642428         0.388093        -1.443918
 H        -0.348613        -0.828384        -0.529136
 H         1.228092         0.140754         2.487606
 H         0.282628        -1.372898         2.053997
 H         2.734397        -1.181959         3.285861
 H         2.628193        -2.495350         2.018900
 H         4.707613        -0.864631         2.016896
 H         4.367740         1.137341         0.695113
 H         4.326233        -1.232459        -0.804729
