19
Iteration:  2425charge 0 multiplicity 1
 C         0.096624         0.120516        -0.237787
 C         1.443375        -0.191713         0.357020
 C         1.270768        -0.872059         1.701637
 C         2.641546        -1.380455         2.337257
 C         3.748748        -0.848824         1.475122
 C         3.579045         0.458319         0.787296
 O         2.339029         1.049038         0.466924
 C         3.608362        -0.884391        -0.035093
 O         2.250824        -1.065445        -0.447710
 H        -0.713975         0.462017         0.433051
 H         0.237615         0.679130        -1.232242
 H        -0.236976        -0.897686        -0.402730
 H         0.517794        -0.231272         2.334434
 H         0.743341        -1.840503         1.336419
 H         2.732194        -1.153922         3.510801
 H         2.486968        -2.459614         2.278006
 H         4.708561        -1.118198         1.820724
 H         4.293595         1.339453         0.775283
 H         4.196102        -1.379539        -0.705443
