19
Iteration:  1291charge 0 multiplicity 1
 C         0.062995        -0.026190        -0.281607
 C         1.435694        -0.183312         0.371464
 C         1.233016        -0.858053         1.732992
 C         2.591655        -1.402779         2.303113
 C         3.756195        -1.002299         1.425666
 C         3.587422         0.513619         0.828734
 O         2.294849         1.057459         0.626940
 C         3.691753        -0.741407        -0.101854
 O         2.280037        -1.014742        -0.542512
 H        -0.482113         0.666864         0.408817
 H         0.123236         0.489479        -1.219621
 H        -0.229418        -1.080443        -0.327268
 H         0.613661        -0.201472         2.254835
 H         0.496466        -1.734797         1.527714
 H         2.777615        -1.048608         3.344294
 H         2.706756        -2.563095         2.459387
 H         4.675662        -1.177834         1.781787
 H         4.314123         1.325183         0.835637
 H         4.561160        -1.000695        -0.678098
