19
Iteration:  3721charge 0 multiplicity 1
 C         0.226306         0.283326        -0.275624
 C         1.463906        -0.260522         0.375827
 C         1.250961        -1.013103         1.688106
 C         2.624770        -0.938784         2.434120
 C         3.760735        -0.919503         1.465812
 C         3.609431         0.367048         0.570967
 O         2.253573         0.884705         0.743031
 C         3.504068        -0.964634        -0.105458
 O         2.226750        -1.154636        -0.536993
 H        -0.293861         0.853099         0.464886
 H         0.668116         0.874372        -1.079103
 H        -0.272089        -0.549459        -0.739319
 H         0.478684        -0.346238         2.240604
 H         0.822324        -1.944886         1.488665
 H         2.471542        -0.065503         3.119844
 H         2.862771        -1.842585         3.055097
 H         4.813179        -1.280457         1.722373
 H         4.194312         1.350573         0.320596
 H         4.342671        -1.441206        -0.649883
