19
Iteration:  1027
 C         0.112239         0.210040        -0.194467
 C         1.501496        -0.321704         0.266620
 C         1.356912        -1.117184         1.616670
 C         2.603687        -1.323476         2.380053
 C         3.755127        -0.756316         1.558169
 C         3.544549         0.446836         0.732148
 O         2.184817         0.925855         0.676352
 C         3.620052        -0.866679         0.022681
 O         2.296802        -0.878856        -0.674488
 H        -0.236398         0.779617         0.632001
 H         0.104345         0.689530        -1.195826
 H        -0.685999        -0.516105        -0.420340
 H         0.646661        -0.537053         2.165632
 H         0.907165        -2.156120         1.309688
 H         2.457076        -0.856366         3.418956
 H         2.982347        -2.467653         2.701009
 H         4.802804        -0.987340         1.882960
 H         4.141468         1.297444         0.581264
 H         4.305527        -1.304943        -0.609019
