19
Iteration:  2910charge 0 multiplicity 1
 C         0.174394         0.041871        -0.474882
 C         1.422315        -0.148397         0.416646
 C         1.234747        -0.787299         1.812618
 C         2.627773        -1.476076         2.200753
 C         3.752244        -0.834182         1.375129
 C         3.577455         0.531614         0.620261
 O         2.306292         0.978270         0.650457
 C         3.568700        -0.840417        -0.033011
 O         2.257284        -1.112880        -0.238060
 H        -0.279035         1.024050        -0.302748
 H         0.372095         0.140481        -1.532819
 H        -0.587496        -0.708024        -0.327314
 H         0.942385         0.005137         2.497973
 H         0.486995        -1.566796         1.829250
 H         2.934171        -1.209082         3.288487
 H         2.516615        -2.511757         2.229360
 H         4.692106        -1.066953         1.870833
 H         4.310774         1.347108         0.644720
 H         4.361214        -1.199479        -0.714587
