19
Iteration:   741charge 0 multiplicity 1
 C         0.238273         0.099090        -0.351340
 C         1.445471        -0.264623         0.405319
 C         1.252756        -1.237664         1.529129
 C         2.603314        -1.195876         2.360514
 C         3.800055        -0.877439         1.482071
 C         3.574947         0.544816         0.622966
 O         2.225116         0.920791         0.916635
 C         3.559391        -0.772953        -0.025502
 O         2.254055        -0.852267        -0.556355
 H        -0.518825         0.459895         0.362075
 H         0.360917         0.770122        -1.235123
 H        -0.266313        -0.836543        -0.699885
 H         0.632075        -0.802336         2.320080
 H         1.002682        -2.285009         0.990021
 H         2.477297        -0.468045         3.137014
 H         2.749962        -2.135817         2.747535
 H         4.801511        -1.431944         1.712816
 H         4.261132         1.296664         0.448832
 H         4.199996        -1.251660        -0.731788
