19
Iteration:  2262charge 0 multiplicity 1
 C         0.250142         0.142431        -0.479398
 C         1.454383        -0.193949         0.441361
 C         1.316337        -0.826938         1.825566
 C         2.643838        -1.520724         2.194779
 C         3.778100        -0.836211         1.495507
 C         3.498969         0.469872         0.662448
 O         2.173781         1.067174         0.556349
 C         3.573788        -0.802382        -0.022271
 O         2.222538        -1.142020        -0.281310
 H        -0.456802         0.624099         0.215978
 H         0.772380         0.811867        -1.281545
 H        -0.313298        -0.750339        -0.780118
 H         1.074242         0.038506         2.530006
 H         0.578009        -1.645130         1.954141
 H         2.792032        -1.755270         3.286037
 H         2.578250        -2.492235         1.801860
 H         4.856077        -0.970213         1.775593
 H         4.247467         1.190815         0.472305
 H         4.394480        -1.090504        -0.699696
