19
Iteration:  4237
 C         0.140227         0.305681        -0.363812
 C         1.466211        -0.224398         0.329219
 C         1.282623        -0.889728         1.835517
 C         2.675869        -1.038548         2.528553
 C         3.733865        -0.888457         1.473622
 C         3.592098         0.377365         0.642524
 O         2.320600         0.854577         0.486709
 C         3.490961        -0.991439         0.002227
 O         2.193540        -1.171600        -0.533436
 H        -0.371060         0.939586         0.346953
 H         0.736139         0.944859        -1.123002
 H        -0.433057        -0.504444        -0.801082
 H         0.381701        -0.365785         2.294108
 H         0.898619        -1.859555         1.644555
 H         2.820766        -0.335089         3.452464
 H         3.002043        -2.085215         2.874233
 H         4.634462        -1.386457         1.871871
 H         4.290348         1.228548         0.634994
 H         4.285881        -1.372897        -0.743638
