19
Iteration:   897
 C         0.050169         0.069105        -0.253214
 C         1.478599        -0.221837         0.381847
 C         1.226283        -0.984047         1.658616
 C         2.620726        -1.536576         2.062986
 C         3.780232        -0.691318         1.583381
 C         3.530440         0.576002         0.753316
 O         2.267077         1.007237         0.605038
 C         3.694131        -0.835678         0.038085
 O         2.308521        -1.037723        -0.429825
 H        -0.593536         0.549953         0.479401
 H         0.227604         0.907406        -0.920719
 H        -0.343926        -0.876160        -0.571922
 H         0.765057        -0.380630         2.461377
 H         0.411785        -1.832452         1.503021
 H         2.824759        -1.631740         3.085639
 H         2.645433        -2.481257         1.622341
 H         4.726780        -0.616676         2.043737
 H         4.229182         1.432938         0.584833
 H         4.392371        -1.141320        -0.703877
