19
Iteration:   251
 C         0.190305         0.044793        -0.322278
 C         1.436591        -0.199000         0.383569
 C         1.304548        -1.092654         1.646301
 C         2.602035        -1.323466         2.380800
 C         3.722242        -0.815102         1.443150
 C         3.596029         0.474755         0.778294
 O         2.276185         0.943498         0.831470
 C         3.549512        -0.776917        -0.160314
 O         2.241363        -0.906747        -0.617066
 H        -0.575190         0.562979         0.282561
 H         0.258074         0.579041        -1.213088
 H        -0.213098        -0.899771        -0.547936
 H         0.656500        -0.546542         2.354307
 H         0.830097        -2.030165         1.300011
 H         2.747042        -0.736560         3.380790
 H         2.766189        -2.369556         2.517947
 H         4.676852        -1.050663         1.955101
 H         4.410751         1.272189         0.631394
 H         4.403285        -1.164551        -0.799749
