19
Iteration:   532
 C         0.125007         0.275455        -0.253171
 C         1.437826        -0.308822         0.323663
 C         1.330232        -1.253291         1.527201
 C         2.648410        -1.202742         2.416158
 C         3.738491        -0.771539         1.536884
 C         3.573831         0.533319         0.726784
 O         2.183496         0.856385         0.837439
 C         3.579043        -0.848981        -0.034982
 O         2.324272        -0.956219        -0.730413
 H        -0.367453         0.793979         0.635833
 H         0.368407         0.955182        -1.083704
 H        -0.554356        -0.585157        -0.522747
 H         0.554944        -0.769301         2.132595
 H         1.191541        -2.344249         1.442846
 H         2.430140        -0.452197         3.170067
 H         2.840688        -2.281047         2.694038
 H         4.691066        -1.110360         1.984252
 H         4.218318         1.395839         0.716074
 H         4.366162        -1.140807        -0.711853
