19
Iteration:  1689charge 0 multiplicity 1
 C         0.143536         0.320561        -0.229961
 C         1.457374        -0.290287         0.375054
 C         1.250521        -1.231734         1.564798
 C         2.554054        -1.115042         2.442626
 C         3.803636        -0.750243         1.468080
 C         3.581964         0.432153         0.701491
 O         2.261432         0.857577         0.722633
 C         3.570780        -0.842071        -0.071152
 O         2.295817        -1.053215        -0.587352
 H        -0.252373         0.920610         0.616239
 H         0.383277         0.971526        -1.079178
 H        -0.501904        -0.560632        -0.516262
 H         0.298593        -0.991528         2.169079
 H         1.162857        -2.227307         1.070816
 H         2.523965        -0.285771         3.200439
 H         2.799678        -1.975468         3.034167
 H         4.794275        -0.969172         1.728612
 H         4.239223         1.225369         0.475974
 H         4.352165        -1.315866        -0.791065
