19
Iteration:  3040charge 0 multiplicity 1
 C         0.242683         0.265074        -0.417929
 C         1.368901        -0.232733         0.414630
 C         1.288889        -1.038790         1.680126
 C         2.696982        -0.937556         2.419874
 C         3.812528        -0.897698         1.416627
 C         3.660210         0.381666         0.657035
 O         2.197930         0.789753         0.754993
 C         3.483347        -0.871559        -0.085987
 O         2.183948        -1.124657        -0.501582
 H        -0.500618         0.905069         0.209875
 H         0.712656         0.866328        -1.162698
 H        -0.284600        -0.528935        -1.026102
 H         0.473369        -0.852013         2.432048
 H         1.146704        -2.055246         1.513386
 H         2.708197        -0.041541         3.121248
 H         2.699286        -1.856822         3.038892
 H         4.786164        -1.201327         1.712318
 H         4.301217         1.325302         0.801956
 H         4.257077        -1.287051        -0.622490
