19
Iteration:  1506
 C         0.148176         0.071414        -0.286790
 C         1.432782        -0.229314         0.365739
 C         1.275278        -0.997114         1.668730
 C         2.576833        -1.294405         2.354678
 C         3.791446        -0.915797         1.429177
 C         3.545070         0.468181         0.758930
 O         2.281150         0.983776         0.658587
 C         3.597127        -0.815133        -0.070266
 O         2.265493        -0.986005        -0.526707
 H        -0.562539         0.690860         0.304696
 H         0.303547         0.782859        -1.078414
 H        -0.330070        -0.895954        -0.573677
 H         0.657051        -0.436588         2.423620
 H         0.746470        -1.879313         1.600565
 H         2.716060        -0.667835         3.341827
 H         2.708823        -2.426132         2.724419
 H         4.791321        -1.088179         1.709850
 H         4.369155         1.209191         0.722276
 H         4.510546        -0.760900        -0.846070
