19
Iteration:  2531charge 0 multiplicity 1
 C         0.127063         0.204926        -0.208773
 C         1.423914        -0.224156         0.358644
 C         1.227922        -0.994751         1.676220
 C         2.616083        -1.255041         2.369291
 C         3.807949        -0.794983         1.536704
 C         3.614232         0.453358         0.684730
 O         2.281268         0.903703         0.590861
 C         3.527855        -0.872713        -0.025526
 O         2.294705        -1.103869        -0.557908
 H        -0.268992         1.145266         0.227220
 H         0.280535         0.487516        -1.348457
 H        -0.463447        -0.690419        -0.202980
 H         0.787887        -0.240243         2.256449
 H         0.485385        -1.770835         1.554625
 H         2.557671        -0.867179         3.320754
 H         2.740615        -2.393822         2.495710
 H         4.847935        -0.907493         1.774533
 H         4.398789         1.218042         0.390720
 H         4.336913        -1.037400        -0.607927
