19
Iteration:  4433charge 0 multiplicity 1
 C         0.141886         0.187304        -0.317606
 C         1.461892        -0.197127         0.374876
 C         1.180039        -0.738333         1.715752
 C         2.587335        -1.321316         2.357057
 C         3.777107        -0.808587         1.488600
 C         3.604686         0.393157         0.579201
 O         2.377939         1.017848         0.460472
 C         3.591926        -0.932024        -0.026206
 O         2.186366        -1.250826        -0.286964
 H        -0.434572         0.699833         0.413508
 H         0.333236         0.846808        -1.200854
 H        -0.315058        -0.748486        -0.568544
 H         0.888047         0.067977         2.568221
 H         0.587415        -1.599128         1.735056
 H         2.596676        -1.013816         3.434874
 H         2.616630        -2.381300         2.360292
 H         4.818757        -0.892339         1.780268
 H         4.531110         0.982261         0.512268
 H         4.268011        -1.289174        -0.788572
