19
Iteration:   663charge 0 multiplicity 1
 C         0.089095         0.120386        -0.263094
 C         1.493263        -0.200130         0.380152
 C         1.245836        -0.992592         1.668927
 C         2.640202        -1.589164         2.075383
 C         3.755600        -0.663319         1.535006
 C         3.549499         0.627589         0.786364
 O         2.213519         0.923013         0.575653
 C         3.664600        -0.728890         0.057469
 O         2.315939        -1.081923        -0.410254
 H        -0.600779         0.795742         0.244019
 H         0.125432         0.738475        -1.194404
 H        -0.548493        -0.803164        -0.363149
 H         0.795176        -0.364881         2.527957
 H         0.516774        -1.935962         1.397925
 H         2.757099        -1.822516         3.117975
 H         2.748533        -2.529707         1.629934
 H         4.806927        -0.728584         1.973694
 H         4.338612         1.398154         0.886817
 H         4.393255        -1.141069        -0.662168
