19
Iteration:  3886charge 0 multiplicity 1
 C         0.124515         0.184255        -0.219200
 C         1.446130        -0.237527         0.329986
 C         1.254369        -0.681153         1.793980
 C         2.539821        -1.350167         2.293940
 C         3.712518        -0.845384         1.465258
 C         3.635936         0.374840         0.659059
 O         2.324279         0.915840         0.435260
 C         3.645628        -0.913189         0.014466
 O         2.234533        -1.144661        -0.411100
 H        -0.435018         0.587758         0.596192
 H         0.278063         0.838372        -1.088530
 H        -0.377658        -0.690128        -0.645848
 H         1.098081         0.383466         2.264520
 H         0.546496        -1.444527         2.030894
 H         2.647594        -0.904684         3.269944
 H         2.606482        -2.411464         2.295723
 H         4.689020        -0.871467         1.915433
 H         4.292312         1.216159         0.498358
 H         4.464708        -1.484346        -0.495367
