19
Iteration:  3109
 C         0.032014         0.111298        -0.238424
 C         1.434180        -0.202426         0.345151
 C         1.275599        -0.893834         1.721607
 C         2.598768        -1.306901         2.381216
 C         3.784661        -0.895871         1.574210
 C         3.572959         0.417605         0.663886
 O         2.317179         1.068556         0.425537
 C         3.627225        -0.893278         0.087991
 O         2.317078        -1.074682        -0.539814
 H        -0.374095         0.996294         0.286618
 H        -0.016719         0.302363        -1.359380
 H        -0.735504        -0.667495        -0.021526
 H         0.717443        -0.259562         2.352968
 H         0.552373        -1.715352         1.564076
 H         2.812791        -0.784706         3.399035
 H         2.630127        -2.383967         2.602638
 H         4.798190        -1.267503         1.919703
 H         4.363202         1.076468         0.522849
 H         4.264031        -1.287703        -0.789352
