19
Iteration:  2118charge 0 multiplicity 1
 C         0.236162         0.175940        -0.427388
 C         1.461525        -0.280106         0.375342
 C         1.292265        -1.134574         1.708530
 C         2.660136        -1.107083         2.449509
 C         3.749195        -0.950008         1.391830
 C         3.572459         0.406813         0.727806
 O         2.217050         0.909484         0.843601
 C         3.520853        -0.815935        -0.101781
 O         2.242488        -0.938877        -0.598725
 H        -0.522215         0.853518         0.089799
 H         0.539797         0.660087        -1.361227
 H        -0.546569        -0.709951        -0.524271
 H         0.572626        -0.445588         2.171727
 H         0.944507        -2.192750         1.617872
 H         2.638717        -0.179911         3.157459
 H         2.787295        -1.959009         3.057924
 H         4.724931        -1.214046         1.674950
 H         4.428362         1.145174         0.602074
 H         4.225530        -1.084292        -0.802734
