19
Iteration:  4530charge 0 multiplicity 1
 C         0.160388         0.125903        -0.268308
 C         1.480304        -0.150957         0.344550
 C         1.279109        -0.927606         1.697841
 C         2.562079        -1.124504         2.517783
 C         3.744908        -0.903301         1.511301
 C         3.662162         0.345157         0.562668
 O         2.443648         1.048368         0.546403
 C         3.449755        -0.962538        -0.000788
 O         2.146658        -1.106489        -0.517004
 H        -0.345252         1.014530         0.083333
 H         0.305953         0.290725        -1.367517
 H        -0.472976        -0.757187        -0.158550
 H         0.509800        -0.363803         2.266115
 H         0.944940        -1.883109         1.456148
 H         2.693585        -0.324616         3.357642
 H         2.537649        -2.076898         3.035985
 H         4.646597        -1.400839         1.828501
 H         4.493129         1.032225         0.335998
 H         4.237590        -1.478100        -0.607907
