19
Iteration:  3512
 C         0.202324         0.275704        -0.310261
 C         1.468826        -0.181684         0.415044
 C         1.308019        -1.192645         1.676119
 C         2.637310        -0.983679         2.473814
 C         3.748650        -0.856347         1.488862
 C         3.624988         0.398527         0.549833
 O         2.314970         0.935114         0.563664
 C         3.463360        -0.940477         0.006940
 O         2.186747        -1.120635        -0.478397
 H        -0.217211         1.048359         0.375126
 H         0.546218         0.716411        -1.234798
 H        -0.460688        -0.584976        -0.453508
 H         0.336323        -0.835771         2.183452
 H         1.193461        -2.110307         1.267822
 H         2.349476        -0.170965         3.175922
 H         2.760598        -1.871884         3.122308
 H         4.703245        -1.077536         1.903138
 H         4.398082         1.109802         0.522922
 H         3.980101        -1.545039        -0.748489
