19
Iteration:  1881charge 0 multiplicity 1
 C         0.166130         0.116393        -0.398554
 C         1.424350        -0.255664         0.373685
 C         1.245372        -1.050330         1.739390
 C         2.625373        -1.178989         2.434271
 C         3.762279        -0.912993         1.466193
 C         3.619505         0.468643         0.712704
 O         2.222043         0.899493         0.796046
 C         3.573656        -0.841685        -0.080099
 O         2.283294        -0.898393        -0.685292
 H        -0.573455         0.711774         0.138367
 H         0.273159         0.614098        -1.285719
 H        -0.315680        -0.878217        -0.453803
 H         0.682180        -0.321903         2.463432
 H         0.919808        -2.116510         1.691722
 H         2.633243        -0.636656         3.349957
 H         2.799210        -2.247260         2.784076
 H         4.739078        -1.252894         1.684638
 H         4.409647         1.197846         0.709271
 H         4.403589        -1.280779        -0.743907
