19
Iteration:  3305charge 0 multiplicity 1
 C         0.198950         0.304603        -0.270270
 C         1.429821        -0.266793         0.359671
 C         1.313897        -0.994233         1.652449
 C         2.681314        -1.061574         2.445246
 C         3.757817        -0.801126         1.487978
 C         3.536180         0.385988         0.606948
 O         2.236965         0.840132         0.637927
 C         3.559002        -0.921606        -0.076387
 O         2.243925        -1.194394        -0.471279
 H        -0.095045         1.236582         0.145229
 H         0.388951         0.517718        -1.366484
 H        -0.609479        -0.369857        -0.423262
 H         0.618749        -0.275354         2.276007
 H         0.703185        -1.892309         1.454598
 H         2.679412        -0.263620         3.193556
 H         2.581408        -2.002663         2.958758
 H         4.757087        -1.149538         1.776579
 H         4.314008         1.210130         0.723694
 H         4.301826        -1.154259        -0.787936
