19
Iteration:  4157
 C         0.142473         0.078856        -0.317140
 C         1.473582        -0.183757         0.410458
 C         1.320756        -0.693374         1.916786
 C         2.609234        -1.256249         2.472760
 C         3.663878        -0.939889         1.410841
 C         3.537958         0.328930         0.703557
 O         2.300526         0.961667         0.443579
 C         3.539505        -0.976725        -0.014137
 O         2.293463        -1.048590        -0.599879
 H        -0.188068         1.096748        -0.003070
 H         0.455544         0.142846        -1.308711
 H        -0.537957        -0.799995        -0.238591
 H         0.763072         0.239899         2.347079
 H         0.563857        -1.456230         1.952253
 H         2.877021        -0.529714         3.372249
 H         2.664416        -2.327290         2.645232
 H         4.687446        -0.962899         1.735296
 H         4.447871         0.936337         0.578659
 H         4.370885        -1.300949        -0.501593
