19
Iteration:  2094
 C         0.138547         0.083374        -0.310640
 C         1.455774        -0.188409         0.389040
 C         1.248324        -1.007040         1.666780
 C         2.623170        -1.282758         2.371930
 C         3.793696        -0.831929         1.534082
 C         3.640046         0.442330         0.697632
 O         2.267220         0.962162         0.679309
 C         3.574516        -0.854603        -0.048380
 O         2.240113        -0.957739        -0.589535
 H        -0.604226         0.676851         0.260886
 H         0.343696         0.658627        -1.188429
 H        -0.477266        -0.841088        -0.483545
 H         0.507835        -0.493803         2.277926
 H         0.907061        -2.065180         1.324185
 H         2.583684        -0.807954         3.406124
 H         2.685073        -2.331389         2.542326
 H         4.737533        -1.108116         1.962717
 H         4.358409         1.294261         0.683211
 H         4.213207        -1.431234        -0.744183
