19
Iteration:  2278charge 0 multiplicity 1
 C         0.176947         0.202229        -0.315429
 C         1.437278        -0.203160         0.395132
 C         1.282089        -0.833640         1.773593
 C         2.630223        -1.485449         2.217059
 C         3.778307        -0.805446         1.475916
 C         3.523184         0.526306         0.762361
 O         2.236224         0.950025         0.489053
 C         3.609790        -0.814871        -0.006504
 O         2.263770        -1.195333        -0.401571
 H        -0.491385         0.763184         0.372014
 H         0.488529         0.838004        -1.095076
 H        -0.231226        -0.799574        -0.614796
 H         1.004751        -0.085780         2.471487
 H         0.417593        -1.440842         1.541104
 H         2.720166        -1.222862         3.262369
 H         2.682844        -2.669282         2.177208
 H         4.718016        -0.838002         1.977030
 H         4.288737         1.361358         0.857227
 H         4.205509        -1.072336        -0.891025
