19
Iteration:  1532charge 0 multiplicity 1
 C         0.120119        -0.055218        -0.319937
 C         1.428478        -0.182016         0.334659
 C         1.240985        -0.832025         1.772659
 C         2.567443        -1.412894         2.270873
 C         3.752598        -0.830078         1.495970
 C         3.604129         0.527131         0.745137
 O         2.309221         0.951318         0.718663
 C         3.595738        -0.884474        -0.073382
 O         2.301754        -0.906237        -0.601298
 H        -0.659668         0.415678         0.318638
 H         0.017242         0.559024        -1.296223
 H        -0.167750        -1.096270        -0.348641
 H         0.918263        -0.161366         2.508796
 H         0.452107        -1.704798         1.937925
 H         2.765503        -1.035888         3.270806
 H         2.708443        -2.470889         2.233532
 H         4.847043        -1.148133         1.703429
 H         4.346952         1.296984         0.775629
 H         4.342908        -1.384868        -0.613275
