19
Iteration:  1228charge 0 multiplicity 1
 C         0.244718         0.304931        -0.375215
 C         1.401669        -0.217068         0.456213
 C         1.209408        -1.267054         1.584124
 C         2.683225        -1.224930         2.377827
 C         3.861379        -0.763154         1.425798
 C         3.520668         0.471514         0.699110
 O         2.200723         0.889224         0.727848
 C         3.586465        -0.785426        -0.100623
 O         2.237102        -1.095807        -0.401440
 H        -0.277140         1.072850         0.232223
 H         0.674319         0.947657        -1.099107
 H        -0.545168        -0.276771        -0.742715
 H         0.473317        -1.031775         2.326441
 H         0.958532        -2.195794         1.101483
 H         2.721152        -0.424080         3.070352
 H         2.780772        -2.272877         2.695507
 H         4.777052        -1.067344         1.803237
 H         4.100041         1.365190         0.531289
 H         4.296754        -1.097643        -0.854706
