19
Iteration:  4232charge 0 multiplicity 1
 C         0.208088         0.346303        -0.357678
 C         1.436270        -0.290503         0.349884
 C         1.298131        -0.892866         1.786217
 C         2.684953        -1.073694         2.567057
 C         3.694425        -0.858994         1.472858
 C         3.594239         0.387226         0.611710
 O         2.311785         0.849318         0.464823
 C         3.489004        -0.966288        -0.014654
 O         2.195781        -1.181972        -0.467619
 H        -0.296384         1.006427         0.386951
 H         0.768333         0.919126        -1.019626
 H        -0.391125        -0.412092        -0.902270
 H         0.427777        -0.441941         2.421805
 H         0.795100        -1.888222         1.498799
 H         2.879811        -0.338381         3.326413
 H         2.852223        -2.095554         2.784935
 H         4.655445        -1.273053         1.785453
 H         4.161668         1.310445         0.513872
 H         4.220257        -1.343518        -0.655479
