19
Iteration:  1798charge 0 multiplicity 1
 C         0.220363         0.069642        -0.307255
 C         1.444204        -0.170282         0.413218
 C         1.280747        -0.793820         1.844432
 C         2.625432        -1.566888         2.170711
 C         3.753957        -0.814002         1.494169
 C         3.503087         0.523143         0.796762
 O         2.173200         0.963903         0.494383
 C         3.618476        -0.772616         0.001963
 O         2.332724        -1.093328        -0.455934
 H        -0.357145         0.684773         0.410379
 H         0.391400         0.700050        -1.246861
 H        -0.416668        -0.761726        -0.620274
 H         1.065600         0.014128         2.453710
 H         0.351364        -1.339605         1.820554
 H         2.679707        -1.772178         3.267970
 H         2.590267        -2.492331         1.649120
 H         4.770967        -1.035992         1.835810
 H         4.238814         1.349573         0.717715
 H         4.294406        -1.032072        -0.785329
