19
Iteration:  3872charge 0 multiplicity 1
 C         0.107219         0.216087        -0.314473
 C         1.454805        -0.182666         0.381149
 C         1.312141        -0.702354         1.767587
 C         2.586788        -1.359009         2.242944
 C         3.807433        -0.805175         1.541470
 C         3.550848         0.443866         0.623187
 O         2.287328         0.957988         0.443829
 C         3.608009        -0.986030        -0.015835
 O         2.237745        -1.253598        -0.298076
 H        -0.446290         0.853960         0.361191
 H         0.441636         0.938796        -1.114922
 H        -0.475518        -0.641725        -0.632763
 H         1.054393         0.125955         2.452193
 H         0.397002        -1.263036         1.708876
 H         2.704624        -1.335090         3.329825
 H         2.475565        -2.404274         2.051910
 H         4.803231        -0.917076         2.038765
 H         4.408699         1.060384         0.713914
 H         4.168108        -1.247311        -0.869613
