19
Iteration:  3166
 C         0.226367         0.127952        -0.529669
 C         1.460638        -0.134640         0.479092
 C         1.262748        -0.751530         1.868023
 C         2.668196        -1.468696         2.274789
 C         3.831999        -0.812818         1.467061
 C         3.556503         0.507998         0.583361
 O         2.212667         0.971495         0.519824
 C         3.512313        -0.857719         0.026346
 O         2.202545        -1.194282        -0.236059
 H        -0.552698         0.784099        -0.129213
 H         0.629984         0.756706        -1.441854
 H        -0.114751        -0.831378        -0.901469
 H         1.165939        -0.002508         2.601843
 H         0.339168        -1.455688         1.773568
 H         2.941732        -1.582809         3.385901
 H         2.504558        -2.470765         1.770986
 H         4.840184        -1.023151         1.767311
 H         4.387390         1.297698         0.438300
 H         4.043241        -1.288704        -0.737159
