19
Iteration:  2233
 C         0.218974         0.018264        -0.498855
 C         1.458441        -0.176829         0.442289
 C         1.236073        -0.775173         1.890987
 C         2.584383        -1.428612         2.142653
 C         3.799400        -0.773044         1.504986
 C         3.591460         0.431977         0.675835
 O         2.256422         0.932512         0.704438
 C         3.578199        -0.790156        -0.082959
 O         2.190365        -1.056861        -0.418121
 H        -0.446537         0.655101         0.095045
 H         0.566323         0.489722        -1.397375
 H        -0.160848        -0.974948        -0.517909
 H         1.122787         0.068603         2.512733
 H         0.559956        -1.546983         2.114473
 H         2.679643        -1.403457         3.181571
 H         2.556539        -2.602967         1.900350
 H         4.800845        -1.016536         1.734255
 H         4.305293         1.343451         0.676291
 H         4.317210        -1.150306        -0.690852
