19
Iteration:  3161
 C         0.262518         0.105146        -0.514220
 C         1.389150        -0.155547         0.466876
 C         1.308825        -0.741624         1.895473
 C         2.621266        -1.470003         2.264859
 C         3.795185        -0.817851         1.448419
 C         3.600959         0.489168         0.581838
 O         2.207817         1.027805         0.536784
 C         3.564263        -0.833036         0.032650
 O         2.193740        -1.217344        -0.265215
 H        -0.463832         0.837227        -0.129267
 H         0.647029         0.634272        -1.364631
 H        -0.179877        -0.833823        -0.889226
 H         0.946773         0.037522         2.645550
 H         0.553747        -1.490922         1.958052
 H         2.880005        -1.635745         3.303986
 H         2.453478        -2.435971         1.814739
 H         4.831221        -0.997692         1.797945
 H         4.297494         1.232779         0.335296
 H         4.156588        -1.283251        -0.832790
