19
Iteration:  3333charge 0 multiplicity 1
 C         0.140131         0.119058        -0.301053
 C         1.451265        -0.184763         0.357663
 C         1.207845        -0.952640         1.792000
 C         2.647423        -1.261643         2.423460
 C         3.734653        -0.827731         1.507707
 C         3.639801         0.460673         0.533954
 O         2.355683         1.001154         0.493806
 C         3.574237        -0.941121         0.013761
 O         2.224892        -1.044744        -0.422277
 H        -0.532566         0.801638         0.258453
 H         0.137364         0.480217        -1.335385
 H        -0.401189        -0.869209        -0.358841
 H         0.672202        -0.288590         2.429081
 H         0.635269        -1.807598         1.437128
 H         2.753473        -0.676197         3.354525
 H         2.514794        -2.358111         2.588182
 H         4.636172        -1.331507         1.859905
 H         4.368590         1.171730         0.467500
 H         4.246323        -1.415423        -0.692002
