19
Iteration:  4085charge 0 multiplicity 1
 C         0.243384         0.234523        -0.403370
 C         1.427604        -0.235548         0.443076
 C         1.196084        -0.815027         1.850047
 C         2.629851        -1.352804         2.347515
 C         3.794125        -0.762680         1.488474
 C         3.572469         0.468717         0.534235
 O         2.341092         0.952064         0.416400
 C         3.532798        -0.911533        -0.032703
 O         2.189401        -1.220991        -0.239907
 H        -0.374413         0.958438         0.222788
 H         0.706327         0.867139        -1.139451
 H        -0.230537        -0.626332        -0.949686
 H         0.820737        -0.030709         2.548223
 H         0.351959        -1.618819         1.871959
 H         2.728397        -1.055913         3.398090
 H         2.588724        -2.469933         2.314464
 H         4.798864        -0.944790         1.940407
 H         4.387132         1.031068         0.215159
 H         4.036759        -1.374188        -0.885360
