19
Iteration:   129
 C         0.160075         0.064356        -0.381588
 C         1.438009        -0.231737         0.401576
 C         1.232942        -0.979099         1.753814
 C         2.665872        -1.445183         2.319549
 C         3.793249        -0.866034         1.422309
 C         3.569500         0.502977         0.776725
 O         2.204060         0.945368         0.692760
 C         3.607413        -0.797889        -0.042244
 O         2.291978        -0.882410        -0.560623
 H        -0.405791         0.834572         0.082908
 H         0.299698         0.448031        -1.393820
 H        -0.568882        -0.722099        -0.406219
 H         0.707299        -0.295897         2.401152
 H         0.522072        -1.828338         1.673677
 H         2.842710        -1.131585         3.391235
 H         2.791881        -2.505036         2.301984
 H         4.739661        -1.072588         1.874234
 H         4.279897         1.305589         0.837939
 H         4.309318        -1.057483        -0.794897
