19
Iteration:   576
 C         0.114809         0.130449        -0.313496
 C         1.483271        -0.163095         0.407209
 C         1.287182        -1.158314         1.609299
 C         2.630418        -1.375526         2.253588
 C         3.729526        -0.823223         1.442892
 C         3.572055         0.497949         0.799323
 O         2.195112         1.004098         0.681667
 C         3.596945        -0.703404        -0.036782
 O         2.311376        -1.053614        -0.456638
 H        -0.640646         0.427426         0.443805
 H         0.373992         0.906511        -1.050199
 H        -0.186784        -0.877088        -0.689034
 H         0.709934        -0.597200         2.332039
 H         0.839988        -1.994361         1.054187
 H         2.639654        -0.815496         3.192954
 H         2.797684        -2.445369         2.387117
 H         4.774603        -0.999393         1.730486
 H         4.345852         1.293755         0.940066
 H         4.327522        -1.014402        -0.797814
