19
Iteration:  2947charge 0 multiplicity 1
 C         0.191139         0.119929        -0.391563
 C         1.461181        -0.229702         0.449860
 C         1.302047        -0.714656         1.978995
 C         2.593469        -1.499697         2.195496
 C         3.742072        -0.777494         1.503666
 C         3.530085         0.500098         0.650838
 O         2.229366         0.918241         0.462763
 C         3.574359        -0.826282         0.056983
 O         2.285202        -1.121461        -0.443897
 H        -0.235804         0.976385         0.121130
 H         0.546163         0.390119        -1.392821
 H        -0.474890        -0.757196        -0.458974
 H         1.092785         0.186171         2.593177
 H         0.356603        -1.433337         1.995395
 H         2.798094        -1.679482         3.226091
 H         2.533642        -2.488763         1.669317
 H         4.790896        -0.910909         1.801757
 H         4.353715         1.204002         0.551787
 H         4.328925        -1.157093        -0.653977
