19
Iteration:  2888
 C         0.202305         0.139291        -0.287552
 C         1.471690        -0.265522         0.408621
 C         1.258825        -0.877368         1.792166
 C         2.569847        -1.307598         2.383759
 C         3.837148        -0.799091         1.461338
 C         3.577630         0.414190         0.691821
 O         2.231711         0.952826         0.551669
 C         3.554458        -0.858832        -0.040564
 O         2.239441        -1.080441        -0.545572
 H        -0.258300         1.069812         0.030442
 H         0.496804         0.415660        -1.319673
 H        -0.575660        -0.597029        -0.357335
 H         0.695112        -0.124780         2.359917
 H         0.598967        -1.738083         1.681897
 H         2.613627        -0.986900         3.494529
 H         2.664180        -2.350668         2.432256
 H         4.813650        -0.992028         1.941747
 H         4.431313         1.057692         0.593666
 H         4.375505        -1.109021        -0.788567
