19
Iteration:  4549charge 0 multiplicity 1
 C         0.193881         0.270702        -0.300360
 C         1.452932        -0.161669         0.399558
 C         1.300959        -0.990876         1.723086
 C         2.626232        -1.074412         2.510892
 C         3.680010        -0.851760         1.501759
 C         3.674489         0.343320         0.544796
 O         2.300145         0.936566         0.473896
 C         3.522826        -1.130221         0.058894
 O         2.191741        -1.015919        -0.471000
 H        -0.239031         1.098097         0.244694
 H         0.350275         0.651635        -1.387129
 H        -0.567788        -0.497956        -0.378659
 H         0.472716        -0.765092         2.302623
 H         1.033283        -2.032217         1.243623
 H         2.680562        -0.410870         3.380183
 H         2.701489        -2.114662         2.918011
 H         4.731731        -0.935929         1.776082
 H         4.475947         1.045791         0.234484
 H         4.132037        -1.683756        -0.560200
