19
Iteration:  4224
 C         0.308401         0.364680        -0.343953
 C         1.406821        -0.314454         0.399748
 C         1.280969        -0.941010         1.734937
 C         2.653305        -1.125314         2.525104
 C         3.707399        -0.815000         1.483762
 C         3.600102         0.403928         0.572365
 O         2.267095         0.874020         0.457995
 C         3.510016        -0.956766        -0.032418
 O         2.178731        -1.199739        -0.404305
 H        -0.300743         0.993627         0.345177
 H         0.698489         1.025792        -1.082204
 H        -0.424679        -0.257509        -0.894278
 H         0.618113        -0.353377         2.502382
 H         0.875300        -1.894370         1.556514
 H         2.828302        -0.348103         3.384170
 H         2.592085        -2.122073         2.987217
 H         4.788351        -0.967588         1.656382
 H         4.351178         1.173162         0.353879
 H         4.289061        -1.497914        -0.661177
