19
Iteration:  2518charge 0 multiplicity 1
 C         0.175370         0.207906        -0.316168
 C         1.469995        -0.225419         0.407626
 C         1.215770        -0.915823         1.783809
 C         2.609770        -1.377813         2.311449
 C         3.756480        -0.724296         1.493444
 C         3.603089         0.511603         0.645612
 O         2.282622         0.926201         0.543208
 C         3.607972        -0.866725         0.036780
 O         2.226791        -1.110585        -0.490491
 H        -0.403469         0.861557         0.337426
 H         0.318779         0.576348        -1.371977
 H        -0.542923        -0.607739        -0.281012
 H         0.576284        -0.425814         2.439755
 H         0.795653        -1.867527         1.593521
 H         2.804886        -1.253328         3.382270
 H         2.742658        -2.461408         2.123702
 H         4.711877        -1.129739         1.895831
 H         4.330858         1.320223         0.417396
 H         4.311915        -1.425374        -0.647549
