19
Iteration:  2897
 C         0.208309         0.121491        -0.383881
 C         1.440007        -0.223034         0.425927
 C         1.176834        -0.857620         1.839214
 C         2.597382        -1.337086         2.323859
 C         3.808271        -0.903015         1.466793
 C         3.623543         0.493494         0.648813
 O         2.221664         0.995386         0.579796
 C         3.619349        -0.811476        -0.048329
 O         2.244833        -1.109743        -0.438424
 H        -0.263488         1.006915         0.034635
 H         0.542117         0.107055        -1.489116
 H        -0.494793        -0.691321        -0.205285
 H         0.727995        -0.125750         2.539846
 H         0.491027        -1.621234         1.767442
 H         2.764230        -1.100458         3.410300
 H         2.657808        -2.426051         2.162890
 H         4.858477        -1.202022         1.743150
 H         4.322206         1.276802         0.465592
 H         4.302160        -1.238772        -0.873028
