19
Iteration:  4822charge 0 multiplicity 1
 C         0.155441         0.214183        -0.388200
 C         1.440721        -0.128242         0.375115
 C         1.193870        -0.859248         1.812344
 C         2.599323        -1.142622         2.375928
 C         3.796282        -0.815742         1.431597
 C         3.655216         0.324295         0.565506
 O         2.359062         0.963010         0.650701
 C         3.572239        -1.020536        -0.026772
 O         2.164238        -1.161576        -0.415972
 H        -0.648334         0.711922         0.216432
 H         0.336111         0.747847        -1.293010
 H        -0.415056        -0.662712        -0.765992
 H         0.654819        -0.332339         2.544682
 H         0.686750        -1.868351         1.534457
 H         2.816490        -0.688667         3.346657
 H         2.568979        -2.334047         2.610433
 H         4.813227        -0.927312         1.753448
 H         4.482215         0.958737         0.305472
 H         4.433021        -1.347759        -0.666162
