19
Iteration:  2990charge 0 multiplicity 1
 C         0.070509         0.131581        -0.211669
 C         1.436166        -0.147132         0.347353
 C         1.281096        -0.827487         1.684012
 C         2.594726        -1.268441         2.363705
 C         3.782056        -0.807669         1.501964
 C         3.627348         0.455680         0.736487
 O         2.314313         0.932051         0.478473
 C         3.585891        -0.942372         0.017023
 O         2.267899        -1.090731        -0.488527
 H        -0.677492         0.337370         0.535566
 H         0.147414         0.761577        -1.096432
 H        -0.288864        -0.808638        -0.656244
 H         0.493070        -0.388271         2.284350
 H         0.847967        -1.907790         1.605138
 H         2.706598        -1.010290         3.410804
 H         2.559772        -2.348225         2.231818
 H         4.683048        -1.281006         1.919049
 H         4.264041         1.232353         0.348644
 H         4.478183        -1.225884        -0.606430
