19
Iteration:  1394charge 0 multiplicity 1
 C         0.115753         0.005536        -0.291767
 C         1.458463        -0.196968         0.348802
 C         1.299235        -0.955464         1.701164
 C         2.606031        -1.342078         2.367807
 C         3.679572        -0.805608         1.488733
 C         3.639451         0.447620         0.678161
 O         2.306730         0.954197         0.696691
 C         3.571300        -0.871585        -0.006080
 O         2.243637        -0.887218        -0.599127
 H        -0.386372         0.673680         0.375120
 H         0.319134         0.453159        -1.278218
 H        -0.460616        -0.911370        -0.274406
 H         0.586888        -0.441908         2.370396
 H         0.797496        -1.772307         1.316007
 H         2.755712        -0.784183         3.340970
 H         2.712360        -2.492049         2.314008
 H         4.760347        -1.004799         1.865469
 H         4.431758         1.173281         0.568408
 H         4.297661        -1.388075        -0.517828
