19
Iteration:  2410
 C         0.089732         0.192900        -0.258703
 C         1.453252        -0.153787         0.384596
 C         1.263314        -1.020961         1.704590
 C         2.607462        -1.329052         2.327925
 C         3.759518        -0.862680         1.520625
 C         3.598564         0.460294         0.695296
 O         2.272845         0.956956         0.475689
 C         3.634708        -0.883636         0.006639
 O         2.234431        -1.055514        -0.468056
 H        -0.303013         0.877162         0.508919
 H         0.251448         0.796209        -1.180888
 H        -0.558171        -0.636323        -0.617986
 H         0.700476        -0.498781         2.462623
 H         0.680832        -1.889339         1.402745
 H         2.709741        -0.723365         3.142209
 H         2.868139        -2.404190         2.673517
 H         4.804324        -0.797937         1.952955
 H         4.414439         1.106454         0.755645
 H         4.492301        -1.146101        -0.714197
