19
Iteration:   515
 C         0.194647         0.142808        -0.242840
 C         1.453383        -0.298553         0.313955
 C         1.273557        -1.175299         1.545994
 C         2.568193        -1.157741         2.359437
 C         3.818896        -0.884743         1.409692
 C         3.553855         0.446103         0.815301
 O         2.203158         0.870191         0.840312
 C         3.593050        -0.730498        -0.081127
 O         2.277530        -0.907608        -0.593989
 H        -0.272370         0.858088         0.379851
 H         0.257025         0.579915        -1.264831
 H        -0.549538        -0.620150        -0.527234
 H         0.361634        -1.064871         2.142057
 H         0.985197        -2.128901         1.065050
 H         2.493672        -0.283419         3.097002
 H         2.807199        -2.106601         2.944519
 H         4.963968        -1.029686         1.757995
 H         4.344341         1.256701         0.733517
 H         4.507202        -1.020925        -0.626370
