19
Iteration:   124charge 0 multiplicity 1
 C         0.142245         0.088735        -0.355805
 C         1.436976        -0.252149         0.389455
 C         1.233241        -1.018544         1.725262
 C         2.621277        -1.413617         2.345480
 C         3.773017        -0.822912         1.398796
 C         3.587024         0.508301         0.758084
 O         2.213709         0.914297         0.729001
 C         3.622461        -0.773511        -0.101355
 O         2.311648        -0.905596        -0.525735
 H        -0.379470         0.944648         0.218596
 H         0.423524         0.439346        -1.419760
 H        -0.669950        -0.732660        -0.518081
 H         0.726402        -0.267988         2.400874
 H         0.497284        -1.826249         1.700208
 H         2.753228        -1.077425         3.358841
 H         2.764597        -2.548205         2.284916
 H         4.788415        -1.038420         1.849250
 H         4.328162         1.328590         0.803289
 H         4.425864        -1.206370        -0.763870
