19
Iteration:  2892
 C         0.214126         0.136499        -0.341739
 C         1.467482        -0.250557         0.422502
 C         1.221753        -0.858456         1.825587
 C         2.571113        -1.310957         2.364504
 C         3.843262        -0.858781         1.461029
 C         3.598245         0.445104         0.671427
 O         2.214576         0.980631         0.561682
 C         3.598502        -0.825526        -0.044732
 O         2.239383        -1.098675        -0.503110
 H        -0.315915         1.034137         0.047772
 H         0.544767         0.218990        -1.342126
 H        -0.583998        -0.650518        -0.256645
 H         0.673536        -0.150025         2.462358
 H         0.442684        -1.756156         1.724437
 H         2.634200        -1.061338         3.403217
 H         2.716670        -2.424926         2.244964
 H         4.817120        -1.108317         1.821395
 H         4.449667         1.159583         0.516930
 H         4.241958        -1.153069        -0.778526
