19
Iteration:  1283charge 0 multiplicity 1
 C         0.049052         0.053377        -0.237442
 C         1.467228        -0.189299         0.328471
 C         1.283759        -0.955574         1.713474
 C         2.558632        -1.368696         2.345694
 C         3.734854        -0.971894         1.422023
 C         3.580133         0.475587         0.806907
 O         2.293182         0.983695         0.593461
 C         3.683686        -0.694811        -0.063939
 O         2.304109        -0.976251        -0.542453
 H        -0.654638         0.482523         0.455514
 H         0.078729         0.333787        -1.280635
 H        -0.372417        -0.907240        -0.374936
 H         0.778934        -0.156151         2.249560
 H         0.636472        -1.768751         1.557818
 H         2.878296        -0.926257         3.319364
 H         2.392858        -2.469951         2.673271
 H         4.707964        -1.265254         1.883990
 H         4.294931         1.306477         0.859143
 H         4.476906        -0.979900        -0.862193
