19
Iteration:  3681
 C         0.168821         0.154190        -0.323638
 C         1.407675        -0.096549         0.427337
 C         1.225377        -0.876457         1.722387
 C         2.671351        -1.276045         2.416615
 C         3.815593        -0.897959         1.531602
 C         3.559991         0.402680         0.583618
 O         2.299307         0.967886         0.498428
 C         3.557844        -0.946206        -0.000731
 O         2.229183        -1.042496        -0.442638
 H        -0.657529         0.759779        -0.007603
 H         0.314100         0.406917        -1.444094
 H        -0.360934        -0.796733        -0.422032
 H         0.784225        -0.211072         2.376089
 H         0.603184        -1.837948         1.635835
 H         2.964547        -0.743794         3.327479
 H         2.647540        -2.358535         2.649551
 H         4.821765        -1.161361         1.863906
 H         4.408770         1.057212         0.548969
 H         4.196904        -1.532638        -0.623617
