19
Iteration:  3835
 C         0.287944         0.151244        -0.429281
 C         1.437714        -0.212008         0.462504
 C         1.287976        -0.727861         1.885513
 C         2.597310        -1.408994         2.301163
 C         3.764232        -0.761577         1.464778
 C         3.637431         0.384168         0.553039
 O         2.242073         0.999936         0.519066
 C         3.513316        -0.983918        -0.039008
 O         2.167723        -1.092387        -0.306553
 H        -0.305579         1.089853        -0.118336
 H         0.765593         0.252688        -1.397408
 H        -0.418960        -0.727650        -0.636815
 H         0.938184         0.033389         2.520732
 H         0.559863        -1.621980         1.881778
 H         2.727661        -1.165850         3.380126
 H         2.877177        -2.530347         2.092031
 H         4.698719        -0.964900         1.962106
 H         4.404600         1.209024         0.615098
 H         3.938167        -1.439899        -0.994081
