19
Iteration:  1824charge 0 multiplicity 1
 C         0.111693         0.149590        -0.303897
 C         1.323785        -0.244755         0.410003
 C         1.284288        -0.905259         1.766518
 C         2.653954        -1.626451         2.121078
 C         3.714498        -0.672108         1.545474
 C         3.526795         0.553684         0.647002
 O         2.290964         1.032373         0.566347
 C         3.726994        -0.782541         0.076922
 O         2.303508        -1.155396        -0.402835
 H        -0.493013         0.774707         0.368132
 H         0.383109         0.741721        -1.172822
 H        -0.516416        -0.594913        -0.785825
 H         1.024419         0.011746         2.515831
 H         0.349370        -1.479993         1.706815
 H         2.601232        -1.789033         3.175907
 H         2.749635        -2.648292         1.636618
 H         4.705007        -0.618027         2.047082
 H         4.334524         1.238257         0.444004
 H         4.307686        -1.387231        -0.619989
