19
Iteration:   218charge 0 multiplicity 1
 C         0.158292         0.222784        -0.431775
 C         1.430858        -0.244456         0.402616
 C         1.322720        -1.052808         1.727809
 C         2.705651        -1.534254         2.177281
 C         3.778203        -0.851490         1.445850
 C         3.500531         0.560913         0.812460
 O         2.141110         1.026053         0.585364
 C         3.632845        -0.744522         0.004794
 O         2.270985        -1.069923        -0.364555
 H        -0.527753         0.553856         0.386176
 H         0.423721         1.018424        -1.057030
 H        -0.316163        -0.557555        -0.910308
 H         0.961326        -0.387826         2.525805
 H         0.485140        -1.754341         1.781032
 H         2.770022        -1.309881         3.303368
 H         2.849104        -2.590108         2.192404
 H         4.762828        -0.890115         1.881838
 H         4.261004         1.405547         0.511102
 H         4.441839        -1.113306        -0.729763
