19
Iteration:  2934charge 0 multiplicity 1
 C         0.256592         0.055396        -0.447608
 C         1.377528        -0.149215         0.423484
 C         1.285037        -0.722300         1.880813
 C         2.655973        -1.469816         2.174695
 C         3.868149        -0.779292         1.595085
 C         3.560742         0.444433         0.698333
 O         2.228603         1.044417         0.565879
 C         3.533505        -0.848705        -0.075811
 O         2.191656        -1.191648        -0.383912
 H        -0.311131         0.979026        -0.267960
 H         0.549091         0.140479        -1.410910
 H        -0.483093        -0.760539        -0.343542
 H         1.108566         0.138674         2.512006
 H         0.482431        -1.525509         2.151659
 H         2.791364        -1.893966         3.200114
 H         2.446321        -2.335145         1.598462
 H         4.768929        -1.063579         2.079127
 H         4.254772         1.297238         0.433789
 H         4.273803        -1.038672        -0.761803
