19
Iteration:  4880charge 0 multiplicity 1
 C         0.143818         0.227210        -0.291860
 C         1.470541        -0.105141         0.395867
 C         1.301358        -0.899470         1.712623
 C         2.573437        -1.221416         2.465911
 C         3.829049        -0.856747         1.493583
 C         3.610768         0.356979         0.563278
 O         2.273869         0.957927         0.488980
 C         3.615962        -1.040803        -0.008113
 O         2.168696        -1.100390        -0.431226
 H        -0.213929         1.153666         0.102581
 H         0.294585         0.479775        -1.356730
 H        -0.548902        -0.601939        -0.209374
 H         0.554253        -0.434146         2.447826
 H         0.772504        -1.734371         1.376030
 H         2.611538        -0.490088         3.331654
 H         2.535176        -2.284427         2.874961
 H         4.887759        -0.960150         1.827099
 H         4.379617         1.172607         0.494618
 H         4.166107        -1.605807        -0.706720
