19
Iteration:  1632
 C         0.152617         0.064402        -0.362603
 C         1.437977        -0.245313         0.414647
 C         1.298721        -0.963599         1.740073
 C         2.576024        -1.322490         2.334850
 C         3.760107        -0.907881         1.452458
 C         3.563387         0.434099         0.752988
 O         2.267427         1.030052         0.645562
 C         3.612609        -0.765235        -0.101404
 O         2.254614        -0.995852        -0.504012
 H        -0.434760         0.772856         0.270590
 H         0.289786         0.454546        -1.381192
 H        -0.585906        -0.800534        -0.483579
 H         0.719165        -0.419237         2.453155
 H         0.702748        -1.910572         1.472490
 H         2.842721        -0.801258         3.261779
 H         2.665896        -2.371752         2.514037
 H         4.820159        -0.990971         1.758700
 H         4.429790         1.118794         0.953231
 H         4.437444        -1.175406        -0.772444
