19
Iteration:  4756charge 0 multiplicity 1
 C         0.124968         0.149614        -0.293643
 C         1.429180        -0.277292         0.343892
 C         1.243482        -0.696673         1.702457
 C         2.566402        -1.219367         2.362042
 C         3.834757        -0.856264         1.472166
 C         3.655243         0.390724         0.653570
 O         2.347442         0.918677         0.572714
 C         3.597599        -0.980444         0.009944
 O         2.175663        -1.095860        -0.442974
 H        -0.221789         0.821686         0.529682
 H         0.386232         0.680332        -1.220508
 H        -0.569698        -0.694053        -0.528384
 H         0.802746         0.155085         2.150093
 H         0.421628        -1.511325         2.008296
 H         2.517855        -0.822666         3.375012
 H         2.432811        -2.443483         2.394004
 H         4.838653        -1.186601         1.743415
 H         4.332556         1.155720         0.337005
 H         4.331108        -1.500511        -0.785775
