19
Iteration:   440
 C         0.141267         0.183928        -0.273302
 C         1.405601        -0.266734         0.373278
 C         1.177072        -0.989923         1.788573
 C         2.656052        -1.561046         2.181858
 C         3.735036        -0.767179         1.459887
 C         3.486086         0.534861         0.808583
 O         2.180134         0.941100         0.600253
 C         3.648539        -0.658728        -0.055593
 O         2.469462        -1.103879        -0.507229
 H        -0.399463         0.750278         0.452913
 H         0.259326         0.915622        -1.109082
 H        -0.640035        -0.531836        -0.530437
 H         0.853521        -0.169324         2.517601
 H         0.406806        -1.820579         1.641314
 H         3.029405        -1.354395         3.203333
 H         2.646154        -2.508724         1.710779
 H         4.768688        -0.828084         1.999855
 H         4.246616         1.369557         0.985081
 H         4.500015        -0.978478        -0.677220
