19
Iteration:  3736
 C         0.184239         0.338294        -0.315997
 C         1.387521        -0.259990         0.435770
 C         1.257247        -1.099817         1.709987
 C         2.610492        -0.982438         2.447934
 C         3.815717        -0.824921         1.442309
 C         3.637234         0.343506         0.584940
 O         2.297378         0.852479         0.631607
 C         3.560355        -1.000231        -0.014134
 O         2.189395        -1.087772        -0.535304
 H        -0.392918         0.994565         0.350061
 H         0.530752         1.068746        -1.081150
 H        -0.502739        -0.456631        -0.671579
 H         0.483187        -0.873436         2.347460
 H         1.042068        -2.175124         1.455534
 H         2.810303         0.001264         2.886949
 H         2.515500        -1.681329         3.311125
 H         4.719498        -1.037192         1.918890
 H         4.436767         0.944504         0.361856
 H         4.192384        -1.257686        -0.826721
