19
Iteration:  1749
 C         0.164552         0.084809        -0.318469
 C         1.469966        -0.242783         0.397480
 C         1.272107        -0.982353         1.715666
 C         2.626876        -1.304141         2.330658
 C         3.772381        -0.814507         1.482935
 C         3.584529         0.502054         0.679985
 O         2.302453         0.931111         0.772916
 C         3.553928        -0.854150        -0.004533
 O         2.229828        -0.942904        -0.614321
 H        -0.666657         0.662114         0.066128
 H         0.466234         0.431575        -1.309110
 H        -0.330091        -0.861619        -0.587938
 H         0.443403        -0.310999         2.170481
 H         0.678850        -1.888129         1.483228
 H         2.567386        -0.920714         3.343261
 H         2.595165        -2.451280         2.372428
 H         4.794100        -1.117718         1.821796
 H         4.399068         1.243301         0.490397
 H         4.265862        -1.311409        -0.702607
