19
Iteration:  1890
 C         0.131882         0.115626        -0.385062
 C         1.489135        -0.277002         0.363829
 C         1.288352        -1.041855         1.667417
 C         2.658977        -1.113055         2.427877
 C         3.746565        -0.907786         1.483046
 C         3.568118         0.413884         0.716085
 O         2.296135         0.827280         0.809702
 C         3.539631        -0.809464        -0.062177
 O         2.230048        -0.855188        -0.639314
 H        -0.460271         0.718963         0.329647
 H         0.412913         0.517149        -1.327913
 H        -0.439008        -0.828577        -0.643981
 H         0.325325        -0.708967         2.266227
 H         0.904591        -2.040662         1.438028
 H         2.759325        -0.407248         3.228247
 H         2.749095        -2.184842         2.757702
 H         4.672368        -1.183258         1.933613
 H         4.222947         1.191669         0.504723
 H         4.421141        -1.241006        -0.659033
