19
Iteration:  1451
 C         0.246418         0.285091        -0.272057
 C         1.427847        -0.266036         0.374649
 C         1.248710        -1.240013         1.574641
 C         2.628619        -1.138222         2.399958
 C         3.830498        -0.746640         1.430401
 C         3.620679         0.430153         0.651028
 O         2.178620         0.872675         0.787748
 C         3.578286        -0.832996        -0.044037
 O         2.204524        -1.062694        -0.573300
 H        -0.176248         1.039473         0.420925
 H         0.454548         0.831796        -1.176305
 H        -0.523690        -0.474017        -0.593127
 H         0.576439        -0.743745         2.312160
 H         0.925190        -2.173166         1.327887
 H         2.475774        -0.401605         3.278166
 H         2.850967        -2.077233         3.026442
 H         4.735230        -0.954747         1.881598
 H         4.235359         1.337117         0.469773
 H         4.397916        -1.299994        -0.670551
