19
Iteration:  4002charge 0 multiplicity 1
 C         0.124905         0.285409        -0.342342
 C         1.448804        -0.117196         0.342663
 C         1.311449        -1.023781         1.744300
 C         2.599793        -1.069673         2.550325
 C         3.758846        -0.842979         1.521668
 C         3.630591         0.332659         0.562562
 O         2.353453         0.915421         0.526566
 C         3.538597        -1.012118        -0.026911
 O         2.171563        -1.127419        -0.491713
 H        -0.318494         1.051237         0.250100
 H         0.223740         0.694313        -1.400780
 H        -0.622556        -0.487665        -0.305239
 H         0.547653        -0.567790         2.344363
 H         1.041797        -2.048071         1.492671
 H         2.540245        -0.267481         3.331914
 H         2.718849        -2.076555         3.046010
 H         4.791771        -1.025697         1.836922
 H         4.530150         0.879288         0.487951
 H         4.249095        -1.445492        -0.788433
