19
Iteration:  4967charge 0 multiplicity 1
 C         0.142488         0.144386        -0.428928
 C         1.433909        -0.111681         0.439379
 C         1.226306        -0.852738         1.828382
 C         2.584710        -1.229934         2.441367
 C         3.745439        -0.798335         1.458322
 C         3.634655         0.362835         0.485563
 O         2.391746         0.917428         0.632753
 C         3.547129        -0.939307        -0.096787
 O         2.196049        -1.111080        -0.376719
 H        -0.555274         0.738387         0.091774
 H         0.452780         0.593188        -1.440487
 H        -0.313450        -0.762450        -0.755159
 H         0.769045        -0.110787         2.578277
 H         0.573039        -1.712515         1.666530
 H         2.633979        -0.760400         3.521020
 H         2.714941        -2.379542         2.549825
 H         4.848335        -1.030559         1.640148
 H         4.446023         1.069289         0.385626
 H         4.308258        -1.502692        -0.772223
