19
Iteration:  1229
 C         0.242670         0.302601        -0.375717
 C         1.396600        -0.214197         0.452970
 C         1.218034        -1.271116         1.583136
 C         2.682765        -1.236334         2.382764
 C         3.850200        -0.749428         1.427327
 C         3.530972         0.466226         0.689901
 O         2.206821         0.887886         0.729065
 C         3.572178        -0.782154        -0.093180
 O         2.239682        -1.094666        -0.405587
 H        -0.294092         1.033897         0.269605
 H         0.697101         0.950780        -1.132101
 H        -0.575744        -0.255291        -0.739210
 H         0.448719        -0.973956         2.346310
 H         0.981945        -2.179780         1.085494
 H         2.696196        -0.441487         3.097308
 H         2.802974        -2.249833         2.690383
 H         4.803727        -1.084484         1.822879
 H         4.105446         1.365717         0.524963
 H         4.323811        -1.104717        -0.854729
