19
Iteration:  1237charge 0 multiplicity 1
 C         0.210075         0.326862        -0.368357
 C         1.383542        -0.254601         0.412132
 C         1.282591        -1.227213         1.624961
 C         2.654486        -1.277537         2.367961
 C         3.784324        -0.731620         1.484356
 C         3.604683         0.494161         0.620856
 O         2.228415         0.892231         0.747765
 C         3.509852        -0.794615        -0.053843
 O         2.250944        -1.081924        -0.465312
 H        -0.303239         0.876981         0.422386
 H         0.630751         0.825555        -1.182120
 H        -0.539832        -0.373386        -0.739664
 H         0.523831        -0.865834         2.207178
 H         1.057080        -2.189689         1.111386
 H         2.471364        -0.740975         3.316842
 H         3.042211        -2.281154         2.805685
 H         4.747393        -0.945028         1.752604
 H         4.310759         1.315006         0.499130
 H         4.289232        -1.068247        -0.679953
