19
Iteration:    95
 C         0.214924         0.314635        -0.264967
 C         1.445428        -0.234587         0.333442
 C         1.179825        -1.181386         1.582630
 C         2.647507        -1.220384         2.289555
 C         3.873802        -0.786286         1.411094
 C         3.527554         0.539409         0.741240
 O         2.154478         0.882881         0.783238
 C         3.563938        -0.841955        -0.020285
 O         2.289397        -1.140522        -0.505650
 H         0.048814         0.895357         0.625984
 H         0.558200         0.911513        -1.201888
 H        -0.440252        -0.563147        -0.522035
 H         0.455417        -0.799181         2.296820
 H         0.931941        -2.173751         1.139915
 H         2.705250        -0.594589         3.235913
 H         2.829719        -2.273253         2.502004
 H         4.887398        -0.939268         1.930728
 H         4.192825         1.307372         0.507102
 H         4.344378        -0.782851        -0.740843
