19
Iteration:  1426charge 0 multiplicity 1
 C         0.105902         0.106051        -0.281805
 C         1.463112        -0.218807         0.357060
 C         1.281930        -1.057186         1.685065
 C         2.624818        -1.167829         2.386402
 C         3.735801        -0.975720         1.386157
 C         3.612464         0.372316         0.782529
 O         2.246503         0.948999         0.675894
 C         3.599154        -0.751346        -0.057357
 O         2.269919        -0.955780        -0.587150
 H        -0.300610         0.870158         0.371656
 H         0.170716         0.513007        -1.314876
 H        -0.625356        -0.671630        -0.370770
 H         0.423130        -0.789996         2.317960
 H         1.145901        -2.061141         1.309315
 H         2.785813        -0.318148         3.119443
 H         2.700970        -2.086894         3.119817
 H         4.712108        -1.215923         1.941603
 H         4.341860         1.151861         0.736654
 H         4.362639        -1.025128        -0.668071
