19
Iteration:    50charge 0 multiplicity 1
 C         0.211059         0.142171        -0.218242
 C         1.465933        -0.238661         0.367173
 C         1.263666        -1.204336         1.644082
 C         2.608873        -1.201787         2.483893
 C         3.752666        -0.829211         1.426434
 C         3.571897         0.416950         0.764864
 O         2.260686         0.961763         0.742326
 C         3.514280        -0.844096        -0.107540
 O         2.262788        -0.835855        -0.661506
 H        -0.478639         0.464049         0.616224
 H         0.236164         0.733763        -1.220704
 H        -0.104914        -0.878463        -0.751698
 H         0.346905        -0.874042         2.162876
 H         1.175122        -2.232022         1.239275
 H         2.601908        -0.384715         3.246152
 H         2.828463        -2.246704         2.832666
 H         4.762254        -1.359757         1.641280
 H         4.341047         1.120839         0.449691
 H         4.311685        -1.291215        -0.749983
