19
Iteration:  4853charge 0 multiplicity 1
 C         0.228283         0.201884        -0.358198
 C         1.485360        -0.296771         0.362369
 C         1.292000        -0.845161         1.851271
 C         2.598861        -1.115715         2.457968
 C         3.732567        -0.902031         1.390214
 C         3.632865         0.386843         0.666035
 O         2.308631         0.883248         0.571779
 C         3.516064        -0.864253        -0.006278
 O         2.151610        -1.133711        -0.513541
 H        -0.189260         1.103442         0.180715
 H         0.397057         0.621461        -1.370253
 H        -0.518405        -0.590035        -0.625160
 H         0.806138        -0.067744         2.383121
 H         0.434792        -1.666673         1.858976
 H         2.760916        -0.381640         3.230313
 H         2.724253        -2.196697         2.819470
 H         4.698396        -1.342059         1.580152
 H         4.452572         1.037980         0.484604
 H         4.293936        -1.350038        -0.750097
