19
Iteration:  2467charge 0 multiplicity 1
 C         0.156851         0.026056        -0.453755
 C         1.426685        -0.274757         0.425004
 C         1.289433        -0.694186         1.892460
 C         2.602485        -1.395746         2.243923
 C         3.781512        -0.838723         1.434417
 C         3.585114         0.463327         0.727106
 O         2.237532         0.964935         0.591702
 C         3.588471        -0.839852        -0.049675
 O         2.279719        -1.079727        -0.417850
 H        -0.639814         0.599900         0.091151
 H         0.458209         0.922415        -1.136358
 H        -0.365616        -0.811859        -0.879428
 H         1.087584         0.262658         2.466613
 H         0.488201        -1.433616         2.228843
 H         2.732024        -1.705368         3.269652
 H         2.480631        -2.405850         1.686164
 H         4.803839        -0.965246         1.710626
 H         4.364657         1.253693         0.928633
 H         4.206483        -1.288134        -0.694480
