19
Iteration:  3930
 C         0.184124         0.141626        -0.368449
 C         1.484296        -0.154557         0.361468
 C         1.251744        -0.886679         1.743781
 C         2.658916        -1.150551         2.408136
 C         3.751833        -0.926718         1.465192
 C         3.650385         0.363801         0.664135
 O         2.363085         0.971270         0.543851
 C         3.476377        -0.996505         0.000219
 O         2.151965        -1.025602        -0.421052
 H        -0.570603         0.653420         0.229491
 H         0.140408         0.423677        -1.407091
 H        -0.336299        -0.814832        -0.528505
 H         0.791543        -0.178433         2.528772
 H         0.663184        -1.727694         1.411088
 H         2.864143        -0.389316         3.150094
 H         2.564159        -2.105315         2.822441
 H         4.706804        -1.245081         1.841717
 H         4.457690         1.140671         0.533303
 H         4.046887        -1.624477        -0.754928
