19
Iteration:  3659
 C         0.143093         0.076671        -0.284117
 C         1.512733        -0.183889         0.356534
 C         1.317274        -0.809461         1.809342
 C         2.575730        -1.372301         2.340044
 C         3.713332        -0.760864         1.542973
 C         3.593281         0.436707         0.681248
 O         2.340629         1.052450         0.438139
 C         3.533704        -0.913822        -0.064088
 O         2.214100        -1.170503        -0.396602
 H        -0.267184         0.979495         0.143441
 H         0.415274         0.456252        -1.345937
 H        -0.654039        -0.663626        -0.389843
 H         0.974843        -0.077942         2.492834
 H         0.505922        -1.620675         1.688398
 H         2.783861        -1.242570         3.412906
 H         2.528968        -2.452309         2.136833
 H         4.651727        -1.113994         1.978827
 H         4.363543         1.234600         0.512338
 H         4.211749        -1.339683        -0.793958
