19
Iteration:  4165charge 0 multiplicity 1
 C         0.176470         0.060730        -0.330841
 C         1.419551        -0.170089         0.414048
 C         1.244408        -0.723379         1.814077
 C         2.669730        -1.230837         2.456268
 C         3.691206        -0.917001         1.473213
 C         3.581117         0.372652         0.688242
 O         2.325800         0.989528         0.492792
 C         3.572891        -1.004410        -0.042278
 O         2.224014        -1.074837        -0.560995
 H        -0.245330         0.951141         0.091998
 H         0.467061         0.198413        -1.423844
 H        -0.502278        -0.736620        -0.112152
 H         0.859409         0.135576         2.377504
 H         0.445400        -1.583410         1.940287
 H         2.780346        -0.545816         3.250846
 H         2.541594        -2.250639         2.849220
 H         4.723137        -1.088171         1.769371
 H         4.598241         0.801746         0.541925
 H         4.327544        -1.225065        -0.789263
