19
Iteration:  2241charge 0 multiplicity 1
 C         0.199954         0.062140        -0.508878
 C         1.427034        -0.205851         0.448645
 C         1.215955        -0.778064         1.947139
 C         2.596556        -1.519295         2.117874
 C         3.816068        -0.715884         1.495044
 C         3.609172         0.520489         0.653331
 O         2.289692         0.951753         0.685547
 C         3.547817        -0.848710        -0.050475
 O         2.199836        -1.071240        -0.395423
 H        -0.737615         0.615186        -0.225940
 H         0.780603         0.461005        -1.465241
 H        -0.296499        -0.881722        -0.831080
 H         1.134483         0.034680         2.716530
 H         0.511623        -1.557379         2.184171
 H         2.864278        -1.543550         3.202328
 H         2.576849        -2.589644         1.812595
 H         4.871142        -0.914517         1.874909
 H         4.287043         1.349336         0.699365
 H         4.278796        -1.288998        -0.750065
