19
Iteration:  1499
 C         0.171030         0.175924        -0.302021
 C         1.423922        -0.239185         0.382672
 C         1.261706        -1.057164         1.709705
 C         2.652381        -1.320620         2.352263
 C         3.790669        -0.856773         1.423171
 C         3.527184         0.449986         0.767401
 O         2.268250         0.987979         0.635089
 C         3.574521        -0.796425        -0.051593
 O         2.285133        -1.033914        -0.534497
 H        -0.522620         0.686252         0.409774
 H         0.276743         0.795761        -1.254045
 H        -0.255139        -0.759713        -0.640036
 H         0.650641        -0.602715         2.454597
 H         0.720408        -2.015101         1.302256
 H         2.718543        -0.605402         3.150443
 H         2.654626        -2.201550         2.899846
 H         4.747366        -1.128568         1.912335
 H         4.204817         1.261013         0.731842
 H         4.194483        -1.017441        -0.872928
