19
Iteration:  4602charge 0 multiplicity 1
 C         0.232720         0.238843        -0.339455
 C         1.406430        -0.243837         0.439842
 C         1.170146        -0.882859         1.758099
 C         2.648728        -1.033053         2.368926
 C         3.789508        -0.914990         1.447793
 C         3.638231         0.345186         0.534297
 O         2.326588         0.919700         0.652239
 C         3.592246        -1.015450        -0.026058
 O         2.166236        -1.128600        -0.469539
 H        -0.439480         0.911061         0.151831
 H         0.429234         0.811756        -1.296973
 H        -0.357591        -0.617636        -0.627074
 H         0.704726        -0.204571         2.423598
 H         0.585104        -1.876241         1.484107
 H         2.619458        -0.285232         3.057753
 H         2.613813        -1.976319         2.985395
 H         4.787982        -1.067856         1.848151
 H         4.346305         1.182169         0.625494
 H         4.148868        -1.523370        -0.691899
