19
Iteration:  1576charge 0 multiplicity 1
 C         0.202819         0.208273        -0.348875
 C         1.443121        -0.210934         0.427948
 C         1.273379        -0.919448         1.800541
 C         2.645838        -1.555244         2.161586
 C         3.768984        -0.769474         1.424866
 C         3.511495         0.549791         0.748972
 O         2.177692         0.988910         0.493628
 C         3.647985        -0.791960         0.014614
 O         2.286283        -1.184813        -0.324419
 H        -0.501801         0.904855         0.150242
 H         0.410357         0.912412        -1.230629
 H        -0.384837        -0.692861        -0.581538
 H         1.057820        -0.166897         2.493730
 H         0.281983        -1.523802         1.731038
 H         2.803411        -1.555270         3.295696
 H         2.632827        -2.630487         1.835732
 H         4.834222        -0.817050         1.881787
 H         4.239016         1.400286         0.762564
 H         4.337323        -0.888258        -0.714736
