19
Iteration:    38
 C         0.138907         0.026798        -0.200205
 C         1.495924        -0.224385         0.386333
 C         1.321422        -1.073956         1.555447
 C         2.594798        -1.180552         2.321448
 C         3.726202        -0.950354         1.448373
 C         3.598285         0.446749         0.705486
 O         2.250851         0.927812         0.797526
 C         3.574571        -0.846777        -0.064392
 O         2.263760        -0.830186        -0.625358
 H        -0.621226         0.443605         0.570243
 H         0.253288         0.855396        -0.956836
 H        -0.308142        -1.015529        -0.502537
 H         0.549700        -0.606661         2.198356
 H         0.872536        -2.012323         1.216295
 H         2.607124        -0.400998         3.102843
 H         2.649997        -2.094854         2.984376
 H         4.751534        -1.145301         1.819314
 H         4.340112         1.265018         0.824716
 H         4.330116        -1.269261        -0.760372
