19
Iteration:   232
 C         0.171386         0.134119        -0.382977
 C         1.403771        -0.189470         0.436159
 C         1.259601        -1.056287         1.748240
 C         2.711323        -1.495932         2.339970
 C         3.822500        -0.871116         1.464194
 C         3.531250         0.517609         0.754604
 O         2.178115         1.010883         0.605627
 C         3.560095        -0.771087        -0.021608
 O         2.263920        -0.947574        -0.481992
 H        -0.634759         0.650784         0.141069
 H         0.581781         0.753782        -1.170129
 H        -0.093794        -0.756870        -0.993657
 H         0.668354        -0.465915         2.491046
 H         0.912120        -1.991543         1.305427
 H         2.843112        -1.075227         3.325062
 H         2.764772        -2.601986         2.238847
 H         4.937220        -1.139779         1.705653
 H         4.248555         1.288174         0.854098
 H         4.232714        -0.935446        -0.848155
