19
Iteration:  4041
 C         0.079479         0.070158        -0.322399
 C         1.465259        -0.230432         0.345357
 C         1.204226        -0.729227         1.786768
 C         2.591529        -1.122080         2.462521
 C         3.719255        -0.914414         1.486578
 C         3.727770         0.309596         0.609782
 O         2.385514         0.939908         0.581017
 C         3.566545        -0.977104        -0.074705
 O         2.207504        -1.035418        -0.513636
 H        -0.629235         0.554926         0.437867
 H         0.134884         0.600581        -1.233033
 H        -0.320213        -0.968557        -0.540172
 H         0.782741         0.085193         2.410352
 H         0.425541        -1.566479         1.750705
 H         2.820155        -0.473798         3.319260
 H         2.558443        -2.166440         2.762307
 H         4.714239        -1.235815         1.811352
 H         4.497811         1.034842         0.470420
 H         4.340589        -1.269783        -0.714422
