19
Iteration:   583charge 0 multiplicity 1
 C         0.115719         0.079250        -0.342121
 C         1.458794        -0.157990         0.406118
 C         1.253200        -1.049045         1.597597
 C         2.651623        -1.450703         2.291888
 C         3.769628        -0.819609         1.453043
 C         3.518223         0.519524         0.773685
 O         2.230618         0.975356         0.744471
 C         3.658748        -0.708892        -0.075008
 O         2.310454        -1.013628        -0.467269
 H        -0.625246         0.449832         0.373878
 H         0.175183         0.757772        -1.178206
 H        -0.213776        -0.806703        -0.810056
 H         0.543305        -0.574621         2.371544
 H         0.661809        -1.999382         1.420694
 H         2.642765        -0.927857         3.248372
 H         2.716737        -2.506233         2.399945
 H         4.760329        -1.022259         1.665580
 H         4.234341         1.282039         0.684869
 H         4.397642        -1.038435        -0.783992
