19
Iteration:  2604charge 0 multiplicity 1
 C         0.138934         0.267699        -0.300927
 C         1.432252        -0.204223         0.380341
 C         1.250492        -1.144007         1.643664
 C         2.680169        -1.042067         2.408889
 C         3.725482        -0.828703         1.471175
 C         3.627170         0.408675         0.621726
 O         2.260027         0.906297         0.711693
 C         3.529462        -0.959362         0.012143
 O         2.266213        -1.073712        -0.547850
 H        -0.319554         0.942148         0.368225
 H         0.341036         0.904635        -1.131871
 H        -0.387677        -0.602260        -0.549445
 H         0.311385        -0.815979         2.119306
 H         1.098858        -2.167121         1.209503
 H         2.600910        -0.312570         3.288156
 H         2.947312        -1.980459         2.857572
 H         4.726468        -1.261850         1.644443
 H         4.398925         1.216367         0.446112
 H         4.311011        -1.277373        -0.630605
