19
Iteration:  3084charge 0 multiplicity 1
 C         0.201979         0.212031        -0.230295
 C         1.514548        -0.223083         0.407807
 C         1.296070        -1.025351         1.660191
 C         2.557005        -1.153933         2.442034
 C         3.705336        -0.767091         1.512912
 C         3.582224         0.460380         0.629768
 O         2.326723         0.900748         0.532699
 C         3.560984        -0.929048        -0.038491
 O         2.228904        -1.085989        -0.516338
 H        -0.322498         1.029835         0.342178
 H         0.221402         0.374756        -1.273076
 H        -0.531897        -0.636848        -0.051403
 H         0.374471        -0.708678         2.234467
 H         1.000483        -1.927736         1.214684
 H         2.588762        -0.537694         3.369823
 H         2.704252        -2.187916         2.740800
 H         4.677339        -1.191849         1.709415
 H         4.291441         1.349004         0.631567
 H         4.151075        -1.538708        -0.706690
