19
Iteration:  3492
 C         0.110076         0.259328        -0.306992
 C         1.431681        -0.239346         0.363057
 C         1.289770        -1.022965         1.705358
 C         2.592259        -1.021671         2.488305
 C         3.763972        -0.774618         1.481700
 C         3.630922         0.343339         0.627404
 O         2.308983         0.888708         0.650218
 C         3.600810        -1.003627        -0.055177
 O         2.186648        -1.070152        -0.541401
 H        -0.129205         1.183719         0.209245
 H         0.448740         0.380089        -1.244801
 H        -0.488060        -0.623547        -0.262194
 H         0.328841        -0.781779         2.275955
 H         1.266054        -2.066363         1.383304
 H         2.646649        -0.167412         3.153980
 H         2.574910        -1.921529         3.058023
 H         4.728412        -1.197151         1.617229
 H         4.346386         0.930412         0.227169
 H         4.368460        -1.373787        -0.717209
