19
Iteration:  4666
 C         0.162056         0.224620        -0.252031
 C         1.418176        -0.290115         0.332788
 C         1.184017        -0.753707         1.742484
 C         2.538822        -1.166129         2.373998
 C         3.758378        -0.859267         1.491023
 C         3.663312         0.406027         0.592660
 O         2.355817         0.877973         0.499242
 C         3.614042        -0.895749        -0.034479
 O         2.220452        -1.191201        -0.416136
 H        -0.071019         0.955109         0.508393
 H         0.207471         0.778188        -1.232197
 H        -0.527627        -0.601670        -0.262503
 H         0.690056         0.011277         2.341756
 H         0.510222        -1.682263         1.790779
 H         2.798989        -0.822951         3.420513
 H         2.513435        -2.330316         2.424758
 H         4.741734        -1.178381         1.844050
 H         4.531341         1.088692         0.540824
 H         4.378058        -1.255551        -0.585826
