19
Iteration:  3914charge 0 multiplicity 1
 C         0.128722         0.057025        -0.282783
 C         1.467709        -0.130605         0.410117
 C         1.316452        -0.747761         1.793389
 C         2.566521        -1.254064         2.533065
 C         3.696537        -0.891952         1.504146
 C         3.635680         0.316131         0.615432
 O         2.377480         1.010427         0.480472
 C         3.522404        -1.011177        -0.045614
 O         2.193406        -1.026055        -0.590091
 H        -0.570899         0.649511         0.344981
 H         0.492194         0.651615        -1.169603
 H        -0.252265        -0.947351        -0.588427
 H         0.728418        -0.014938         2.278573
 H         0.724766        -1.687877         1.720008
 H         2.647100        -0.792591         3.555967
 H         2.643304        -2.409423         2.660182
 H         4.765106        -1.015467         1.799120
 H         4.408426         1.079561         0.524950
 H         4.328884        -1.365352        -0.628120
