19
Iteration:   686charge 0 multiplicity 1
 C         0.179479         0.144345        -0.243614
 C         1.475236        -0.368695         0.361784
 C         1.265862        -1.029618         1.686435
 C         2.624632        -1.487913         2.217658
 C         3.747946        -0.728174         1.549250
 C         3.474858         0.554154         0.741123
 O         2.154830         0.974780         0.686941
 C         3.648634        -0.731734        -0.006234
 O         2.383004        -0.993540        -0.586914
 H        -0.400086         0.825198         0.374288
 H         0.304312         0.791817        -1.147572
 H        -0.559040        -0.678602        -0.447131
 H         0.811280        -0.354522         2.454215
 H         0.423370        -1.871908         1.496682
 H         2.670058        -1.355541         3.293164
 H         2.780565        -2.513327         2.112705
 H         4.828001        -0.965828         1.938015
 H         4.288990         1.185749         0.506421
 H         4.307703        -1.041614        -0.773299
