19
Iteration:   737
 C         0.239318         0.066445        -0.382402
 C         1.427242        -0.249035         0.421309
 C         1.254833        -1.228989         1.532191
 C         2.610260        -1.208219         2.368051
 C         3.788043        -0.888909         1.448090
 C         3.579316         0.528412         0.660252
 O         2.240563         0.937514         0.913272
 C         3.572779        -0.778226        -0.005778
 O         2.241971        -0.859818        -0.561723
 H        -0.583330         0.522896         0.185132
 H         0.346405         0.806958        -1.176552
 H        -0.292430        -0.861676        -0.657086
 H         0.617398        -0.821944         2.363840
 H         0.989882        -2.141247         1.024679
 H         2.589886        -0.420265         3.190543
 H         2.773364        -2.269222         2.824396
 H         4.758448        -1.293625         1.654903
 H         4.279685         1.374791         0.417849
 H         4.196554        -1.084970        -0.858658
