19
Iteration:  2764charge 0 multiplicity 1
 C         0.204922         0.139206        -0.282997
 C         1.477666        -0.218416         0.428171
 C         1.247023        -0.970958         1.730408
 C         2.558860        -1.299007         2.294927
 C         3.720295        -0.844866         1.455410
 C         3.588463         0.455033         0.640719
 O         2.287646         1.035530         0.577093
 C         3.607014        -0.824995        -0.027881
 O         2.235054        -1.130983        -0.426795
 H        -0.338818         0.987599         0.257442
 H         0.323750         0.491629        -1.361205
 H        -0.449360        -0.808080        -0.445762
 H         0.666736        -0.330276         2.402412
 H         0.850362        -1.937826         1.643517
 H         2.885811        -0.828600         3.238695
 H         2.559159        -2.466421         2.417504
 H         4.681230        -0.955535         1.875021
 H         4.400391         1.238103         0.511749
 H         4.263917        -1.148333        -0.723800
