19
Iteration:  2828
 C         0.215192         0.250717        -0.241922
 C         1.507038        -0.194715         0.374706
 C         1.284304        -1.199327         1.640158
 C         2.565698        -0.985386         2.413077
 C         3.733576        -0.859728         1.455755
 C         3.654877         0.418242         0.624089
 O         2.280869         0.897339         0.686694
 C         3.531267        -0.943482        -0.126822
 O         2.178241        -1.052795        -0.476024
 H        -0.482042         0.486173         0.613088
 H         0.330971         0.970497        -1.053489
 H        -0.123763        -0.718710        -0.753098
 H         0.383363        -0.840939         2.064641
 H         1.148389        -2.199711         1.259338
 H         2.463995        -0.045625         2.880502
 H         2.626058        -1.800454         3.236499
 H         4.726140        -1.045230         1.738146
 H         4.458799         1.207380         0.648993
 H         4.275527        -1.418359        -0.589140
