19
Iteration:  2608
 C         0.152587         0.293063        -0.289656
 C         1.451234        -0.226691         0.391292
 C         1.273540        -1.121780         1.647484
 C         2.651394        -1.056775         2.405434
 C         3.748670        -0.846542         1.506374
 C         3.639977         0.440129         0.641743
 O         2.223997         0.900176         0.674633
 C         3.543501        -0.952169        -0.036062
 O         2.259149        -1.095137        -0.545485
 H        -0.541676         0.861134         0.448005
 H         0.402142         0.983325        -1.183532
 H        -0.536028        -0.560414        -0.530662
 H         0.416406        -0.815177         2.192733
 H         0.950421        -2.063925         1.214025
 H         2.575117        -0.340364         3.186252
 H         2.964048        -2.026966         2.954888
 H         4.708577        -1.308498         1.630969
 H         4.401230         1.196751         0.478230
 H         4.455631        -1.215123        -0.571485
