19
Iteration:  3097charge 0 multiplicity 1
 C         0.074554         0.132598        -0.205961
 C         1.463768        -0.167148         0.302215
 C         1.260410        -0.985817         1.659269
 C         2.618875        -1.266498         2.436159
 C         3.717784        -0.823333         1.503233
 C         3.666313         0.425124         0.731221
 O         2.318441         0.992421         0.437144
 C         3.572705        -0.964305        -0.015125
 O         2.230387        -1.049537        -0.492768
 H        -0.205309         1.092723         0.300603
 H         0.132411         0.355747        -1.278907
 H        -0.589015        -0.752383         0.023587
 H         0.641416        -0.366522         2.298621
 H         0.797952        -1.918752         1.426979
 H         2.569301        -0.604434         3.387211
 H         2.742406        -2.301006         2.746339
 H         4.707194        -0.658061         1.988906
 H         4.485838         1.125111         0.745173
 H         4.501761        -1.321373        -0.606861
