19
Iteration:  3996charge 0 multiplicity 1
 C         0.134211         0.332084        -0.353037
 C         1.389298        -0.211850         0.358031
 C         1.325265        -1.028670         1.756740
 C         2.619925        -1.057700         2.523027
 C         3.783267        -0.863721         1.563720
 C         3.607076         0.357665         0.564351
 O         2.369653         0.915669         0.524296
 C         3.501298        -1.005540        -0.029630
 O         2.190836        -1.139850        -0.517539
 H        -0.270522         1.220966         0.240697
 H         0.442393         0.713817        -1.331167
 H        -0.761692        -0.358825        -0.361100
 H         0.468079        -0.543871         2.357311
 H         1.108534        -2.093137         1.575500
 H         2.584890        -0.267641         3.298917
 H         2.769952        -2.038402         2.916822
 H         4.773640        -1.020764         1.995679
 H         4.421724         1.156699         0.326647
 H         4.229516        -1.511284        -0.646482
