19
Iteration:  3927charge 0 multiplicity 1
 C         0.180298         0.127076        -0.340830
 C         1.482758        -0.155034         0.355624
 C         1.279221        -0.853593         1.746144
 C         2.657112        -1.182642         2.422620
 C         3.721061        -0.915148         1.491258
 C         3.638783         0.361043         0.661329
 O         2.355686         0.969570         0.530400
 C         3.501496        -0.989015        -0.017150
 O         2.146979        -1.009011        -0.449821
 H        -0.601129         0.614845         0.182338
 H         0.180384         0.483790        -1.444801
 H        -0.242991        -0.875130        -0.488866
 H         0.789738        -0.199525         2.503882
 H         0.653750        -1.662558         1.457823
 H         2.877887        -0.417302         3.217680
 H         2.559998        -2.175055         2.860115
 H         4.718327        -1.187464         1.869328
 H         4.527286         0.953759         0.517269
 H         4.024865        -1.666131        -0.708664
