19
Iteration:   674
 C         0.137375         0.136738        -0.241165
 C         1.435736        -0.251136         0.329343
 C         1.264006        -1.054850         1.681281
 C         2.613713        -1.531371         2.176897
 C         3.726771        -0.648733         1.577772
 C         3.567361         0.554830         0.706830
 O         2.197343         0.960281         0.668635
 C         3.667901        -0.753176        -0.019515
 O         2.317727        -1.047827        -0.525611
 H        -0.185892         0.714696         0.615542
 H         0.333344         0.654850        -1.205591
 H        -0.495860        -0.774688        -0.422438
 H         0.806688        -0.202708         2.308893
 H         0.550493        -2.058737         1.658138
 H         2.634100        -1.702670         3.237318
 H         2.778441        -2.408779         1.630445
 H         4.748830        -0.738426         2.078126
 H         4.098840         1.512400         0.849109
 H         4.592597        -1.073493        -0.493036
