19
Iteration:  3954charge 0 multiplicity 1
 C         0.207580         0.323225        -0.342089
 C         1.402774        -0.233050         0.427767
 C         1.186150        -0.923707         1.737230
 C         2.597183        -1.027553         2.428255
 C         3.788944        -0.842616         1.443651
 C         3.655967         0.344026         0.547955
 O         2.313710         0.897908         0.696212
 C         3.594956        -0.923073        -0.126983
 O         2.191781        -1.259546        -0.418423
 H        -0.406074         1.170391         0.060421
 H         0.574439         0.483344        -1.300424
 H        -0.552937        -0.426816        -0.630688
 H         0.459223        -0.466588         2.426882
 H         0.859548        -1.920919         1.305921
 H         2.759886        -0.226456         3.113450
 H         2.548359        -1.994333         2.935299
 H         4.738904        -1.090304         1.924646
 H         4.548246         0.948126         0.281577
 H         4.237487        -1.360390        -0.859890
