19
Iteration:  3391
 C         0.095850         0.200978        -0.383924
 C         1.446465        -0.264804         0.431029
 C         1.289866        -0.677550         1.908756
 C         2.553467        -1.415081         2.271544
 C         3.790364        -0.800960         1.531712
 C         3.557732         0.461491         0.635511
 O         2.267096         0.940968         0.468162
 C         3.664275        -0.867759        -0.127984
 O         2.252510        -1.250469        -0.363858
 H        -0.605232         0.589265         0.291449
 H         0.710509         0.756555        -1.160283
 H        -0.242745        -0.743092        -0.759878
 H         1.192967         0.265646         2.638051
 H         0.354424        -1.156025         1.878780
 H         2.812878        -1.369973         3.331267
 H         2.481821        -2.557856         2.259694
 H         4.709087        -0.764908         2.149623
 H         4.180638         1.480984         0.465641
 H         4.372116        -1.247703        -0.880988
