19
Iteration:  1432
 C         0.109850         0.156676        -0.274480
 C         1.472580        -0.271506         0.386362
 C         1.284462        -1.053951         1.680268
 C         2.616134        -1.153899         2.357680
 C         3.734676        -0.947891         1.421021
 C         3.573515         0.450113         0.760015
 O         2.253414         0.899038         0.704106
 C         3.568693        -0.809654        -0.090596
 O         2.301692        -0.975654        -0.564146
 H        -0.300103         1.089918         0.222427
 H         0.202168         0.722855        -1.226160
 H        -0.611091        -0.685918        -0.453894
 H         0.347534        -0.873357         2.207244
 H         1.234703        -2.187566         1.329549
 H         2.747268        -0.383383         3.107986
 H         2.745137        -1.910252         3.042028
 H         4.720085        -1.170274         1.742292
 H         4.331214         1.246367         0.825135
 H         4.440151        -1.117388        -0.834954
