19
Iteration:   335charge 0 multiplicity 1
 C         0.075496         0.256484        -0.315582
 C         1.394320        -0.231337         0.430532
 C         1.280185        -1.269592         1.541806
 C         2.661318        -1.303929         2.368169
 C         3.813498        -0.712061         1.496059
 C         3.552171         0.467241         0.691454
 O         2.235216         0.906506         0.748994
 C         3.609808        -0.811058        -0.027558
 O         2.290085        -0.956165        -0.553782
 H        -0.394565         0.938117         0.413699
 H         0.538249         0.761387        -1.167349
 H        -0.481654        -0.632570        -0.519075
 H         0.546028        -0.956164         2.243411
 H         0.905034        -2.211474         1.196459
 H         2.516007        -0.918246         3.299638
 H         2.869763        -2.330621         2.597536
 H         4.758010        -0.925370         1.788302
 H         4.314205         1.322073         0.637300
 H         4.438739        -1.052169        -0.745291
