19
Iteration:  4890
 C         0.156929         0.232621        -0.251040
 C         1.485528        -0.200212         0.403660
 C         1.257339        -0.922566         1.647341
 C         2.590915        -1.173108         2.350154
 C         3.765624        -0.832518         1.523005
 C         3.630758         0.396181         0.508391
 O         2.347828         0.957370         0.508129
 C         3.509818        -1.016290         0.085000
 O         2.182132        -1.089492        -0.388973
 H        -0.290190         1.060387         0.275374
 H         0.348812         0.336944        -1.315487
 H        -0.521026        -0.571587         0.003691
 H         0.552735        -0.290594         2.208036
 H         0.822259        -1.825950         1.238842
 H         2.523282        -0.658427         3.351787
 H         2.876181        -2.278458         2.653130
 H         4.794733        -1.023543         1.856152
 H         4.544580         0.993592         0.238824
 H         4.163940        -1.491343        -0.531172
