19
Iteration:  1300
 C         0.142179        -0.054491        -0.316392
 C         1.469520        -0.172729         0.394775
 C         1.193827        -0.813321         1.731492
 C         2.627412        -1.455472         2.260496
 C         3.778602        -0.898017         1.418417
 C         3.602997         0.475220         0.788546
 O         2.250651         1.078019         0.668284
 C         3.603165        -0.804139        -0.048308
 O         2.297556        -1.011644        -0.522627
 H        -0.549893         0.582621         0.323524
 H         0.197463         0.489413        -1.275969
 H        -0.421618        -1.054669        -0.407197
 H         0.763190        -0.202858         2.558818
 H         0.511431        -1.732800         1.546957
 H         2.685762        -1.052692         3.262442
 H         2.597899        -2.498568         2.114978
 H         4.770124        -1.073564         1.754506
 H         4.412618         1.183118         0.875030
 H         4.310947        -1.072513        -0.747909
