19
Iteration:  3405charge 0 multiplicity 1
 C         0.259259         0.170419        -0.371341
 C         1.428141        -0.193587         0.397939
 C         1.257106        -0.748624         1.895298
 C         2.641253        -1.422440         2.266007
 C         3.757413        -0.723717         1.502859
 C         3.546145         0.437133         0.598636
 O         2.250233         0.963354         0.427665
 C         3.599844        -0.896472         0.019308
 O         2.207685        -1.233060        -0.330741
 H        -0.477176         0.770649         0.243915
 H         0.395677         0.822701        -1.178217
 H        -0.391067        -0.643847        -0.725940
 H         1.011502         0.172494         2.523485
 H         0.475134        -1.558400         2.079853
 H         2.746264        -1.432081         3.356549
 H         2.557745        -2.418915         1.843031
 H         4.771417        -0.793113         1.872534
 H         4.425622         1.064858         0.595704
 H         4.344474        -1.201043        -0.781625
