19
Iteration:  3181
 C         0.207102         0.177211        -0.477328
 C         1.343693        -0.198981         0.407882
 C         1.259667        -0.772940         1.824434
 C         2.704957        -1.459053         2.244374
 C         3.817624        -0.747835         1.494653
 C         3.586592         0.430688         0.663105
 O         2.288434         0.990240         0.493566
 C         3.587948        -0.911988         0.000063
 O         2.147998        -1.164407        -0.256437
 H        -0.688384         0.566983         0.077282
 H         0.506715         0.842048        -1.232419
 H        -0.101002        -0.767988        -0.981547
 H         0.873818         0.096728         2.543281
 H         0.423038        -1.490754         1.959617
 H         2.712464        -1.256542         3.286900
 H         2.855884        -2.555098         2.193839
 H         4.859166        -0.862544         1.817696
 H         4.270205         1.282928         0.549347
 H         4.269245        -1.330531        -0.804692
