19
Iteration:   240
 C         0.176704         0.093922        -0.390782
 C         1.471881        -0.168801         0.467823
 C         1.273503        -1.044355         1.719178
 C         2.688555        -1.414427         2.363868
 C         3.775687        -0.855309         1.481926
 C         3.537348         0.445279         0.738851
 O         2.235665         0.969535         0.695591
 C         3.573902        -0.725406        -0.079214
 O         2.204289        -0.932928        -0.576156
 H        -0.649283         0.534770         0.187811
 H         0.496803         0.667938        -1.206326
 H        -0.092569        -0.867956        -0.723934
 H         0.475272        -0.681999         2.371832
 H         0.858750        -2.003185         1.333723
 H         2.670496        -1.118571         3.475222
 H         2.764998        -2.483819         2.426868
 H         4.853869        -0.930062         1.635301
 H         4.280041         1.316495         0.878134
 H         4.386032        -1.035276        -0.822613
