19
Iteration:  3896
 C         0.137627         0.147467        -0.238685
 C         1.494432        -0.230965         0.318325
 C         1.208260        -0.719130         1.870264
 C         2.555278        -1.294050         2.393169
 C         3.712338        -0.864488         1.517994
 C         3.651927         0.455232         0.636134
 O         2.318120         0.934782         0.428482
 C         3.582283        -0.950078        -0.013135
 O         2.277670        -1.120471        -0.540348
 H        -0.423767         0.525515         0.580473
 H         0.106437         0.937939        -1.013843
 H        -0.288413        -0.814439        -0.474798
 H         0.895870         0.213360         2.486602
 H         0.321519        -1.309249         1.948803
 H         2.797566        -1.058610         3.430778
 H         2.519618        -2.344942         2.434462
 H         4.663816        -1.281981         1.829093
 H         4.547925         1.016777         0.522439
 H         4.282401        -1.496626        -0.690134
