19
Iteration:  2992
 C         0.058068         0.123979        -0.222298
 C         1.437331        -0.146404         0.367929
 C         1.279985        -0.848408         1.686642
 C         2.593164        -1.246115         2.374851
 C         3.783363        -0.802697         1.496556
 C         3.635399         0.459365         0.725838
 O         2.315698         0.923873         0.486582
 C         3.589981        -0.951686         0.014384
 O         2.260234        -1.072778        -0.491316
 H        -0.671041         0.367950         0.534986
 H         0.184444         0.827754        -1.138050
 H        -0.235798        -0.820491        -0.685895
 H         0.431496        -0.377531         2.240770
 H         0.842309        -1.935288         1.574299
 H         2.707278        -0.996171         3.384922
 H         2.628667        -2.381179         2.253353
 H         4.679817        -1.305552         1.935009
 H         4.281613         1.213302         0.379287
 H         4.470589        -1.313784        -0.646753
