19
Iteration:   985
 C         0.222400         0.184546        -0.332579
 C         1.430866        -0.244713         0.414215
 C         1.308364        -1.229911         1.522850
 C         2.616395        -1.176936         2.258797
 C         3.788159        -0.851267         1.383831
 C         3.577741         0.503234         0.772745
 O         2.183374         0.930348         0.851316
 C         3.592058        -0.774578        -0.134801
 O         2.258713        -1.024855        -0.403027
 H        -0.296564         0.910925         0.268997
 H         0.503392         0.759710        -1.243707
 H        -0.414665        -0.631023        -0.738235
 H         0.446163        -0.963913         2.245649
 H         0.803462        -2.254681         1.231912
 H         2.592806        -0.467415         3.076433
 H         2.616441        -2.137308         2.820067
 H         4.767138        -0.974181         1.935565
 H         4.315465         1.232792         0.660268
 H         4.219340        -0.942373        -0.956794
