19
Iteration:  2859charge 0 multiplicity 1
 C         0.077880         0.263457        -0.205877
 C         1.462996        -0.235363         0.289598
 C         1.272519        -1.073367         1.677018
 C         2.595205        -1.158772         2.488753
 C         3.797867        -0.832682         1.485384
 C         3.641944         0.437825         0.648303
 O         2.242464         0.954980         0.534906
 C         3.572894        -0.956178         0.017423
 O         2.290125        -1.065814        -0.570362
 H        -0.363833         0.862786         0.630127
 H         0.023026         0.969884        -0.969293
 H        -0.536743        -0.602264        -0.563714
 H         0.488610        -0.518247         2.206204
 H         0.945395        -2.156728         1.333291
 H         2.566957        -0.487845         3.324042
 H         2.783897        -2.182018         2.953342
 H         4.749777        -1.164660         1.779613
 H         4.486590         1.171162         0.574216
 H         4.339222        -1.512002        -0.432255
