19
Iteration:  2115charge 0 multiplicity 1
 C         0.210749         0.166679        -0.433641
 C         1.475351        -0.292744         0.373928
 C         1.295413        -1.110560         1.698643
 C         2.637758        -1.129978         2.476205
 C         3.733556        -0.910181         1.355701
 C         3.565039         0.412245         0.733985
 O         2.242075         0.910588         0.837115
 C         3.515869        -0.843351        -0.068808
 O         2.240106        -0.925999        -0.596582
 H        -0.449771         0.851221         0.114678
 H         0.473162         0.637313        -1.345080
 H        -0.411731        -0.734138        -0.524546
 H         0.604834        -0.449394         2.218672
 H         0.914553        -2.212376         1.586207
 H         2.682259        -0.254722         3.167874
 H         2.831739        -2.027907         3.037084
 H         4.750753        -1.182529         1.573180
 H         4.418352         1.089942         0.578620
 H         4.320776        -1.031148        -0.799108
