19
Iteration:  3607
 C         0.207652         0.107239        -0.345059
 C         1.452511        -0.225000         0.361546
 C         1.277445        -0.732991         1.853738
 C         2.609432        -1.474288         2.277044
 C         3.792132        -0.771093         1.481827
 C         3.613099         0.465267         0.661595
 O         2.310751         1.027682         0.467203
 C         3.529826        -0.861340         0.024733
 O         2.151388        -1.203766        -0.371115
 H        -0.524571         0.827638         0.036367
 H         0.474610         0.442504        -1.399982
 H        -0.378410        -0.785358        -0.628194
 H         1.258521         0.123583         2.526172
 H         0.380978        -1.472284         1.945990
 H         2.761865        -1.226068         3.337081
 H         2.493696        -2.566259         2.144209
 H         4.769963        -0.732367         1.880631
 H         4.363266         1.202648         0.614439
 H         4.276871        -1.147446        -0.694223
