19
Iteration:  2254charge 0 multiplicity 1
 C         0.210548         0.109820        -0.527625
 C         1.355836        -0.219677         0.474618
 C         1.285046        -0.834525         1.900958
 C         2.668036        -1.517937         2.216505
 C         3.769301        -0.798755         1.448457
 C         3.554695         0.515778         0.657493
 O         2.228426         1.039753         0.613463
 C         3.607081        -0.836635        -0.007532
 O         2.224431        -1.111042        -0.315438
 H        -0.523949         0.811374        -0.053677
 H         0.713375         0.701755        -1.333611
 H        -0.133112        -0.861272        -0.856199
 H         1.127299         0.019670         2.508114
 H         0.431711        -1.402674         1.896733
 H         2.809566        -1.823234         3.197053
 H         2.607665        -2.476398         1.518129
 H         4.747001        -0.929279         1.854403
 H         4.396613         1.250604         0.380734
 H         4.223939        -1.218237        -0.736824
