19
Iteration:  4366charge 0 multiplicity 1
 C         0.190687         0.125388        -0.342533
 C         1.439369        -0.133787         0.422387
 C         1.217141        -0.757590         1.782405
 C         2.617650        -1.249784         2.307698
 C         3.810675        -0.871565         1.460993
 C         3.641826         0.410544         0.650956
 O         2.318188         1.012786         0.472808
 C         3.518732        -1.021022         0.006656
 O         2.167642        -1.178184        -0.344198
 H        -0.403859         0.868875         0.135650
 H         0.498430         0.419309        -1.365200
 H        -0.275364        -0.838183        -0.343534
 H         0.735008         0.188209         2.344570
 H         0.593862        -1.481597         1.413370
 H         2.793519        -0.904709         3.363536
 H         2.508222        -2.296717         2.394657
 H         4.866282        -1.092322         1.595116
 H         4.409750         1.176646         0.542521
 H         4.323195        -1.475699        -0.514328
