19
Iteration:  3482
 C         0.142525         0.200412        -0.307205
 C         1.467052        -0.263308         0.326094
 C         1.260447        -1.035488         1.710603
 C         2.644183        -1.007674         2.467008
 C         3.776259        -0.885031         1.487868
 C         3.609611         0.385058         0.611972
 O         2.311926         0.910518         0.656782
 C         3.509794        -0.973458        -0.024291
 O         2.245184        -1.057542        -0.566190
 H        -0.226505         1.111016         0.200143
 H         0.196492         0.452431        -1.320285
 H        -0.745769        -0.412812        -0.152023
 H         0.550541        -0.370568         2.268214
 H         0.751308        -2.034322         1.514250
 H         2.557894        -0.203246         3.178624
 H         2.840484        -1.877778         3.064354
 H         4.755461        -1.083065         1.911841
 H         4.377562         1.060909         0.444034
 H         4.172456        -1.397201        -0.742547
