19
Iteration:  1035charge 0 multiplicity 1
 C         0.141918         0.124468        -0.191083
 C         1.477560        -0.259751         0.274120
 C         1.293484        -1.068057         1.574511
 C         2.665985        -1.363385         2.340736
 C         3.789407        -0.721208         1.621870
 C         3.527139         0.446889         0.760818
 O         2.229160         0.926617         0.691871
 C         3.625556        -0.880608         0.001388
 O         2.244994        -0.897079        -0.698047
 H        -0.316265         0.811149         0.544643
 H         0.052607         0.707228        -1.115737
 H        -0.429650        -0.796402        -0.304457
 H         0.612270        -0.522425         2.164362
 H         0.718331        -1.890714         1.407214
 H         2.548141        -0.843601         3.312440
 H         2.661516        -2.418261         2.605065
 H         4.802123        -0.895317         1.799041
 H         4.231262         1.328048         0.809513
 H         4.341581        -1.342939        -0.633922
