19
Iteration:  3444charge 0 multiplicity 1
 C         0.099411         0.125626        -0.347690
 C         1.430140        -0.163524         0.409376
 C         1.220436        -0.851312         1.771301
 C         2.617999        -1.235716         2.418768
 C         3.750148        -0.833006         1.510862
 C         3.618726         0.353260         0.646217
 O         2.336316         0.982644         0.530279
 C         3.541001        -0.935746        -0.100627
 O         2.260146        -1.130964        -0.459953
 H        -0.152309         0.988339         0.224439
 H         0.289233         0.285221        -1.477990
 H        -0.385991        -0.810300        -0.142874
 H         0.733582        -0.155140         2.454379
 H         0.566541        -1.664314         1.705770
 H         2.913157        -0.840892         3.417240
 H         2.673094        -2.374544         2.411089
 H         4.759296        -0.751995         1.958103
 H         4.414959         1.196458         0.505441
 H         4.366765        -1.072475        -0.798180
