19
Iteration:  2640
 C         0.184383         0.216971        -0.256845
 C         1.487658        -0.273992         0.389434
 C         1.181862        -0.947305         1.724135
 C         2.639274        -1.224171         2.424701
 C         3.728812        -0.840058         1.431232
 C         3.579389         0.403713         0.679563
 O         2.232632         0.942868         0.538837
 C         3.592924        -0.880873        -0.064569
 O         2.292043        -1.078025        -0.489579
 H        -0.479629         0.511653         0.611531
 H         0.280190         1.007062        -1.067638
 H        -0.398414        -0.554037        -0.812644
 H         0.606963        -0.368188         2.396339
 H         0.727237        -1.898652         1.457483
 H         2.803912        -0.675901         3.354211
 H         2.839589        -2.357439         2.549978
 H         4.736954        -1.056716         1.880048
 H         4.361021         1.154264         0.719015
 H         4.452486        -1.107475        -0.728170
