19
Iteration:  4551
 C         0.195981         0.279884        -0.297286
 C         1.448383        -0.159561         0.387746
 C         1.292905        -1.009596         1.724850
 C         2.617127        -1.086050         2.500989
 C         3.707790        -0.824409         1.494181
 C         3.669036         0.324291         0.556038
 O         2.297609         0.930797         0.469635
 C         3.522279        -1.118859         0.051275
 O         2.187720        -1.021637        -0.471676
 H        -0.230292         1.129196         0.236693
 H         0.372056         0.686617        -1.341504
 H        -0.571460        -0.483908        -0.399756
 H         0.463430        -0.715467         2.363315
 H         1.093675        -2.006420         1.329326
 H         2.716935        -0.350013         3.405973
 H         2.654430        -2.077328         2.946555
 H         4.735752        -0.950154         1.849237
 H         4.434109         1.068511         0.285336
 H         4.180792        -1.770979        -0.574888
