19
Iteration:  4471charge 0 multiplicity 1
 C         0.271720         0.255092        -0.355447
 C         1.445954        -0.225432         0.384879
 C         1.261565        -0.873244         1.788907
 C         2.680713        -1.240210         2.422185
 C         3.741350        -0.724228         1.518694
 C         3.577034         0.387094         0.610368
 O         2.355354         0.945492         0.486374
 C         3.471261        -1.027611        -0.025036
 O         2.127745        -1.173869        -0.400118
 H        -0.321347         1.081029         0.117422
 H         0.702027         0.631044        -1.301152
 H        -0.451384        -0.531536        -0.679276
 H         0.713423        -0.174278         2.310472
 H         0.495399        -1.735695         1.704032
 H         2.833422        -0.844186         3.412652
 H         2.676824        -2.374381         2.496697
 H         4.831216        -0.807867         1.747024
 H         4.316291         1.170339         0.568072
 H         4.135477        -1.438158        -0.804456
