19
Iteration:  2522charge 0 multiplicity 1
 C         0.161887         0.229567        -0.287177
 C         1.468978        -0.218330         0.413801
 C         1.206835        -0.944120         1.751457
 C         2.622376        -1.339060         2.330192
 C         3.779523        -0.739110         1.488077
 C         3.606381         0.497774         0.669137
 O         2.298591         0.900310         0.552114
 C         3.571661        -0.853089         0.051589
 O         2.251388        -1.120443        -0.537691
 H        -0.421841         0.890235         0.404696
 H         0.289958         0.436425        -1.430044
 H        -0.517220        -0.643633        -0.248198
 H         0.571314        -0.274657         2.420425
 H         0.699935        -1.939884         1.603319
 H         2.598104        -1.114074         3.381106
 H         2.737651        -2.472862         2.184507
 H         4.742232        -1.044380         1.820804
 H         4.319435         1.272885         0.322884
 H         4.230962        -1.243743        -0.611988
