19
Iteration:   156
 C         0.123151        -0.045476        -0.358533
 C         1.470361        -0.108408         0.405600
 C         1.397469        -0.888842         1.672062
 C         2.637163        -1.624786         2.295732
 C         3.725211        -0.901527         1.460204
 C         3.535393         0.509600         0.860815
 O         2.226175         1.098466         0.586369
 C         3.567113        -0.730933        -0.034996
 O         2.279634        -0.975745        -0.472935
 H        -0.675610         0.676290         0.017722
 H         0.209632         0.476291        -1.318735
 H        -0.412425        -1.034138        -0.370567
 H         1.114672        -0.037304         2.386179
 H         0.502850        -1.513006         1.591891
 H         2.650383        -1.594290         3.356623
 H         2.710690        -2.737309         2.022300
 H         4.779282        -0.983878         1.900398
 H         4.320995         1.272705         0.917996
 H         4.295759        -1.048838        -0.843397
