19
Iteration:  3076
 C         0.229516         0.214416        -0.242713
 C         1.396097        -0.231510         0.396966
 C         1.250679        -1.078182         1.672331
 C         2.568788        -1.098931         2.442759
 C         3.743981        -0.817850         1.511489
 C         3.648569         0.448141         0.557468
 O         2.266538         0.933110         0.613619
 C         3.527979        -0.898155        -0.010859
 O         2.256332        -1.110474        -0.541627
 H        -0.145807         1.077770         0.376487
 H         0.588125         0.546204        -1.245984
 H        -0.598397        -0.532856        -0.199229
 H         0.425662        -0.682989         2.198508
 H         1.113202        -2.114343         1.293300
 H         2.694255        -0.357272         3.329343
 H         2.726693        -2.113962         2.814996
 H         4.747349        -1.258928         1.754898
 H         4.395842         1.185330         0.349452
 H         4.353948        -1.421133        -0.669969
