19
Iteration:  3112charge 0 multiplicity 1
 C         0.020949         0.117101        -0.244865
 C         1.461247        -0.231435         0.360798
 C         1.283473        -0.847407         1.736719
 C         2.594677        -1.313987         2.377563
 C         3.804525        -0.904644         1.572474
 C         3.549173         0.427171         0.647378
 O         2.311542         1.059722         0.437327
 C         3.625610        -0.885702         0.073520
 O         2.326719        -1.076353        -0.534581
 H        -0.357601         1.025985         0.193192
 H        -0.076559         0.303801        -1.365409
 H        -0.645417        -0.724857        -0.104490
 H         0.726426        -0.229144         2.428394
 H         0.521683        -1.710900         1.581766
 H         2.728026        -0.886513         3.384891
 H         2.554944        -2.426987         2.556740
 H         4.733337        -1.387776         1.881498
 H         4.321925         1.174361         0.462859
 H         4.271728        -1.254400        -0.668427
