19
Iteration:  1272charge 0 multiplicity 1
 C         0.086841         0.075656        -0.239320
 C         1.491117        -0.235601         0.351096
 C         1.269815        -0.963089         1.655444
 C         2.608132        -1.345131         2.374342
 C         3.745158        -0.891435         1.476286
 C         3.594460         0.436717         0.775867
 O         2.221200         0.924825         0.597665
 C         3.578137        -0.798864        -0.047693
 O         2.347820        -0.913743        -0.574665
 H        -0.460456         0.749015         0.426848
 H         0.077451         0.739536        -1.099277
 H        -0.386990        -0.850092        -0.351083
 H         0.748340        -0.384447         2.402281
 H         0.652398        -1.810835         1.524136
 H         2.552539        -0.674359         3.235500
 H         2.724654        -2.480838         2.580003
 H         4.805384        -1.022853         1.782884
 H         4.391516         1.167702         0.917075
 H         4.367537        -1.001950        -0.860336
