19
Iteration:  2506charge 0 multiplicity 1
 C         0.178395         0.155199        -0.335265
 C         1.427067        -0.215145         0.389108
 C         1.264077        -0.930577         1.794076
 C         2.638175        -1.432974         2.269268
 C         3.729532        -0.768738         1.513190
 C         3.589224         0.479141         0.604522
 O         2.240313         1.032266         0.525602
 C         3.607247        -0.899721        -0.038651
 O         2.238121        -1.090249        -0.335911
 H        -0.237383         0.949531         0.257561
 H         0.542512         0.662573        -1.212074
 H        -0.432016        -0.683262        -0.721723
 H         0.806755        -0.246371         2.500093
 H         0.544674        -1.669681         1.529894
 H         2.747297        -1.336713         3.411404
 H         2.657581        -2.480390         2.022818
 H         4.801666        -0.776423         1.900209
 H         4.325269         1.252618         0.722718
 H         4.438268        -1.442776        -0.714087
