19
Iteration:  3006charge 0 multiplicity 1
 C         0.127275         0.111630        -0.319161
 C         1.468493        -0.222759         0.405468
 C         1.212148        -1.016406         1.718982
 C         2.621497        -1.199639         2.411876
 C         3.750358        -0.807435         1.500466
 C         3.676525         0.409872         0.579223
 O         2.321951         0.975211         0.585955
 C         3.563417        -0.941551        -0.019862
 O         2.218840        -1.003374        -0.493701
 H        -0.685103         0.434754         0.391070
 H         0.242173         0.964552        -1.043568
 H        -0.303467        -0.777862        -0.836686
 H         0.657168        -0.380487         2.467693
 H         0.652510        -1.846598         1.354320
 H         2.627815        -0.526806         3.313917
 H         2.763661        -2.255518         2.794621
 H         4.790467        -0.850433         1.803761
 H         4.469015         1.169779         0.707895
 H         4.157436        -1.538424        -0.671698
