19
Iteration:  1080
 C         0.258270         0.092805        -0.417565
 C         1.419360        -0.187572         0.463299
 C         1.216421        -0.990489         1.738455
 C         2.687116        -1.453483         2.227498
 C         3.840027        -0.894187         1.374929
 C         3.552470         0.513716         0.754454
 O         2.172224         0.996567         0.696642
 C         3.570380        -0.729001        -0.067172
 O         2.248709        -1.047666        -0.391318
 H        -0.518745         0.768510        -0.056552
 H         0.583525         0.636802        -1.330351
 H        -0.191810        -0.819219        -0.809249
 H         0.818731        -0.306207         2.422617
 H         0.425475        -1.664025         1.679350
 H         2.717754        -1.201974         3.295112
 H         2.830739        -2.574653         2.240518
 H         4.760004        -0.704100         1.928145
 H         4.204889         1.342171         0.849513
 H         4.162154        -0.935680        -0.899841
