19
Iteration:  1931charge 0 multiplicity 1
 C         0.165990         0.291293        -0.185655
 C         1.424622        -0.242251         0.354344
 C         1.260279        -1.280425         1.586378
 C         2.535562        -1.178807         2.404185
 C         3.689433        -0.789615         1.462433
 C         3.601547         0.496551         0.703526
 O         2.272822         0.885878         0.618009
 C         3.604906        -0.840231        -0.037161
 O         2.323503        -1.047571        -0.522160
 H        -0.279170         0.956247         0.627868
 H         0.503938         1.039729        -1.018493
 H        -0.674466        -0.403093        -0.442729
 H         0.358050        -1.204563         2.188271
 H         1.336111        -2.259524         1.094913
 H         2.430648        -0.258200         3.110906
 H         2.883726        -2.037098         2.972948
 H         4.748924        -0.946628         1.773393
 H         4.383023         1.192452         0.572798
 H         4.436330        -1.030101        -0.787393
