19
Iteration:  4360charge 0 multiplicity 1
 C         0.184840         0.164019        -0.346164
 C         1.515357        -0.159591         0.438734
 C         1.161060        -0.759730         1.763448
 C         2.611008        -1.226522         2.272332
 C         3.819461        -0.846859         1.483975
 C         3.611437         0.383240         0.588664
 O         2.297805         1.000015         0.493629
 C         3.532106        -0.983733        -0.006831
 O         2.212841        -1.187720        -0.288036
 H        -0.300406         1.000523         0.253164
 H         0.529466         0.525497        -1.336889
 H        -0.492824        -0.737843        -0.407616
 H         0.649610        -0.086342         2.354067
 H         0.475017        -1.701564         1.494641
 H         2.920564        -0.937361         3.269376
 H         2.423502        -2.355204         2.436492
 H         4.831317        -1.139437         1.812640
 H         4.340153         1.106608         0.195699
 H         4.288408        -1.574893        -0.602262
