19
Iteration:  4980
 C         0.227058         0.142070        -0.367724
 C         1.465262        -0.204980         0.481529
 C         1.168409        -0.821415         1.819950
 C         2.570365        -1.224945         2.288318
 C         3.810183        -0.799738         1.455144
 C         3.698630         0.403678         0.512567
 O         2.314944         0.956588         0.564734
 C         3.530558        -1.009551        -0.010929
 O         2.176925        -1.087523        -0.362921
 H        -0.511502         0.616554         0.242074
 H         0.448494         0.834767        -1.211807
 H        -0.179341        -0.829228        -0.562569
 H         0.507264        -0.158081         2.529243
 H         0.586115        -1.642611         1.640165
 H         2.770598        -0.813549         3.402442
 H         2.608041        -2.340997         2.409359
 H         4.690094        -1.147914         2.046753
 H         4.343555         1.104717         0.061244
 H         4.280155        -1.403529        -0.845255
