19
Iteration:   728
 C         0.141532         0.057236        -0.417478
 C         1.420398        -0.197232         0.417144
 C         1.292236        -1.156141         1.631112
 C         2.640189        -1.275962         2.358742
 C         3.776995        -0.884657         1.388289
 C         3.596615         0.485748         0.793879
 O         2.254660         0.956924         0.872408
 C         3.554532        -0.772528        -0.083169
 O         2.243931        -0.897322        -0.559531
 H        -0.607753         0.645361         0.082331
 H         0.557448         0.651127        -1.280634
 H        -0.166630        -0.940136        -0.837012
 H         0.305897        -0.981621         2.170034
 H         0.937319        -2.205054         1.224169
 H         2.699401        -0.515156         3.160277
 H         2.790083        -2.211261         2.895154
 H         4.842337        -0.995533         1.744495
 H         4.282816         1.285995         0.621059
 H         4.367449        -0.813397        -0.754736
