19
Iteration:  1418
 C         0.109950         0.082059        -0.281442
 C         1.426179        -0.179035         0.339608
 C         1.288751        -1.093794         1.643735
 C         2.618523        -1.179353         2.465842
 C         3.765717        -1.003585         1.456080
 C         3.621639         0.412944         0.800217
 O         2.255619         0.994822         0.657495
 C         3.603614        -0.804007        -0.095146
 O         2.252180        -0.926219        -0.604463
 H        -0.435725         0.717579         0.416410
 H         0.277014         0.343553        -1.301117
 H        -0.461381        -0.890935        -0.124220
 H         0.587283        -0.569663         2.358634
 H         0.812168        -1.962571         1.304340
 H         2.688043        -0.276209         3.150395
 H         2.646722        -2.228892         2.813365
 H         4.786378        -1.236522         1.741806
 H         4.433116         1.157866         0.724633
 H         4.387058        -1.023704        -0.798810
