19
Iteration:  1008
 C         0.161373         0.276125        -0.207998
 C         1.410343        -0.248450         0.399959
 C         1.239787        -1.244686         1.589260
 C         2.672233        -1.275980         2.404010
 C         3.739109        -0.815817         1.482049
 C         3.555193         0.513881         0.729538
 O         2.214709         0.904818         0.652242
 C         3.612967        -0.734310        -0.042412
 O         2.336842        -1.034875        -0.600997
 H        -0.295864         1.029905         0.444284
 H         0.334647         0.792488        -1.175080
 H        -0.555256        -0.516624        -0.535816
 H         0.258446        -1.092212         2.209257
 H         0.961234        -2.326825         1.160525
 H         2.703837        -0.607280         3.260118
 H         2.605822        -2.204194         2.903763
 H         4.838422        -1.053374         1.673215
 H         4.223832         1.334499         0.770724
 H         4.467849        -0.979146        -0.701197
