19
Iteration:  1258
 C         0.177842         0.173784        -0.247537
 C         1.450453        -0.250557         0.338336
 C         1.259647        -1.083216         1.658618
 C         2.646661        -1.289752         2.378105
 C         3.776391        -0.780153         1.495688
 C         3.537908         0.470952         0.735750
 O         2.228421         0.960748         0.686723
 C         3.626857        -0.896869        -0.009457
 O         2.249720        -0.963614        -0.644338
 H        -0.405403         0.708514         0.533402
 H         0.417948         0.676952        -1.148280
 H        -0.558339        -0.595900        -0.531512
 H         0.615754        -0.474488         2.208211
 H         0.824332        -2.087865         1.333516
 H         2.796517        -0.854545         3.392047
 H         2.759528        -2.460676         2.547074
 H         4.691021        -1.031579         1.881611
 H         4.180903         1.324810         0.574004
 H         4.376045        -1.338658        -0.581227
