19
Iteration:  1554
 C         0.150921         0.011658        -0.333884
 C         1.440899        -0.236933         0.395293
 C         1.322754        -0.815795         1.768305
 C         2.612743        -1.510903         2.260333
 C         3.757851        -0.873611         1.541654
 C         3.563091         0.485077         0.738129
 O         2.227421         1.042954         0.577622
 C         3.587735        -0.763837        -0.068020
 O         2.278750        -0.999257        -0.466584
 H        -0.615804         0.639466         0.153411
 H         0.337007         0.685486        -1.242300
 H        -0.326791        -0.944238        -0.540827
 H         0.959580        -0.094671         2.447797
 H         0.418560        -1.566190         1.693114
 H         2.900573        -1.510728         3.335272
 H         2.594421        -2.547402         1.905194
 H         4.787984        -1.052780         2.038566
 H         4.416036         1.170654         0.685949
 H         4.255642        -1.073820        -0.788732
