19
Iteration:  4434
 C         0.135469         0.192115        -0.324717
 C         1.464534        -0.191633         0.374932
 C         1.169448        -0.747292         1.719898
 C         2.590345        -1.324041         2.360262
 C         3.784637        -0.814797         1.504262
 C         3.609203         0.403129         0.569275
 O         2.378439         1.026433         0.456785
 C         3.587202        -0.937712        -0.025893
 O         2.186847        -1.253390        -0.281535
 H        -0.439136         0.730317         0.420559
 H         0.348483         0.838983        -1.178498
 H        -0.313717        -0.760365        -0.578379
 H         0.889427         0.052099         2.550200
 H         0.580691        -1.646991         1.716000
 H         2.620726        -1.023613         3.418142
 H         2.597068        -2.403522         2.368366
 H         4.841895        -0.884296         1.783649
 H         4.523678         1.011492         0.489611
 H         4.273630        -1.297630        -0.846383
