19
Iteration:   596charge 0 multiplicity 1
 C         0.126154         0.035962        -0.410553
 C         1.412451        -0.282839         0.334605
 C         1.201824        -0.961036         1.753610
 C         2.628228        -1.454735         2.285874
 C         3.873681        -0.843889         1.462126
 C         3.592364         0.525473         0.725238
 O         2.185884         0.957108         0.818780
 C         3.616619        -0.752203        -0.045109
 O         2.307126        -0.910083        -0.551888
 H        -0.640097         0.406721         0.290664
 H         0.366032         0.747412        -1.192881
 H        -0.215037        -0.965245        -0.643032
 H         0.740849        -0.125172         2.397149
 H         0.596310        -1.861913         1.408701
 H         2.795531        -1.278436         3.329299
 H         2.697727        -2.483694         2.160813
 H         4.768733        -0.940710         1.941718
 H         4.261891         1.404757         0.675116
 H         4.381544        -0.906114        -0.818273
