19
Iteration:  1539charge 0 multiplicity 1
 C         0.092585        -0.039250        -0.334323
 C         1.460842        -0.170747         0.355827
 C         1.243790        -0.874105         1.797190
 C         2.580904        -1.432861         2.253655
 C         3.744503        -0.816151         1.464259
 C         3.592383         0.507211         0.755520
 O         2.315264         0.987131         0.685215
 C         3.609502        -0.899343        -0.013486
 O         2.261889        -0.917054        -0.582710
 H        -0.600363         0.389966         0.421699
 H         0.256245         0.366176        -1.331277
 H        -0.262626        -1.069217        -0.542116
 H         1.028838         0.041967         2.441913
 H         0.517047        -1.586861         1.956021
 H         2.610746        -1.157638         3.401248
 H         2.691353        -2.589925         2.049293
 H         4.758489        -0.971842         1.656464
 H         4.366891         1.257993         0.739451
 H         4.562348        -1.144517        -0.693765
