19
Iteration:  3966charge 0 multiplicity 1
 C         0.315174         0.391578        -0.377851
 C         1.469049        -0.272083         0.390501
 C         1.235451        -1.012881         1.744276
 C         2.593087        -1.016611         2.427287
 C         3.758373        -0.805638         1.469365
 C         3.569181         0.389462         0.525340
 O         2.299256         0.826236         0.669111
 C         3.491952        -1.002036        -0.113378
 O         2.197853        -1.227065        -0.429524
 H         0.129996         1.260280         0.295297
 H         0.545790         0.805381        -1.303688
 H        -0.529007        -0.310239        -0.324625
 H         0.558552        -0.414153         2.319807
 H         0.718337        -2.027986         1.710875
 H         2.575844        -0.225035         3.151655
 H         2.844068        -1.906593         3.043160
 H         4.754344        -0.828984         1.936922
 H         4.096899         1.320419         0.382550
 H         4.220638        -1.393254        -0.749628
