19
Iteration:   467charge 0 multiplicity 1
 C         0.203427         0.134745        -0.341728
 C         1.476915        -0.254047         0.316566
 C         1.337164        -1.088705         1.599294
 C         2.658173        -1.423952         2.334091
 C         3.790904        -0.781828         1.547746
 C         3.499790         0.518057         0.745501
 O         2.181046         0.911716         0.749488
 C         3.564956        -0.780237        -0.015704
 O         2.259424        -0.902708        -0.529932
 H        -0.378107         0.943470         0.218405
 H         0.264437         0.466076        -1.373715
 H        -0.530606        -0.690491        -0.450901
 H         0.727772        -0.449148         2.235636
 H         0.686367        -1.917668         1.362570
 H         2.833352        -1.163625         3.411962
 H         2.786661        -2.613598         2.201357
 H         4.810847        -0.992788         1.869483
 H         4.156632         1.322717         0.670983
 H         4.276731        -0.986676        -0.798121
