19
Iteration:  4838
 C         0.218689         0.196184        -0.360690
 C         1.415139        -0.240500         0.427283
 C         1.199093        -0.783856         1.744428
 C         2.650370        -1.137568         2.422129
 C         3.794327        -0.899325         1.479744
 C         3.601821         0.384533         0.559229
 O         2.288075         0.889768         0.679230
 C         3.525461        -1.025018        -0.114065
 O         2.220384        -1.104956        -0.495633
 H        -0.332874         0.891687         0.238415
 H         0.703949         0.699922        -1.248014
 H        -0.332642        -0.730507        -0.479449
 H         0.631406         0.144622         2.273746
 H         0.607796        -1.627422         1.785843
 H         2.796585        -0.503856         3.329164
 H         2.667431        -2.101528         2.798467
 H         4.820372        -1.085640         1.923558
 H         4.297619         1.258976         0.469027
 H         4.201770        -1.499937        -0.842132
