19
Iteration:  2170charge 0 multiplicity 1
 C         0.196255         0.239045        -0.193735
 C         1.428746        -0.284664         0.364203
 C         1.296757        -1.120534         1.595446
 C         2.562811        -1.273184         2.411758
 C         3.765127        -0.719042         1.529062
 C         3.585585         0.484258         0.612465
 O         2.272996         0.990092         0.630766
 C         3.615663        -0.913951         0.042797
 O         2.232427        -1.062294        -0.606084
 H        -0.215880         0.847390         0.607847
 H         0.392087         0.844223        -0.995814
 H        -0.677911        -0.365851        -0.425369
 H         0.428915        -0.893994         2.226042
 H         1.010925        -2.137248         1.077607
 H         2.395184        -0.691605         3.331063
 H         2.690907        -2.278874         2.734166
 H         4.738404        -1.013986         1.768674
 H         4.427401         1.253715         0.485909
 H         4.370926        -1.403793        -0.469132
