19
Iteration:    18charge 0 multiplicity 1
 C        -0.076672         0.098544        -0.291876
 C         1.417870        -0.226977         0.329232
 C         1.202802        -1.016257         1.632415
 C         2.612420        -1.249540         2.329678
 C         3.853664        -0.936363         1.394149
 C         3.642786         0.442008         0.832365
 O         2.303448         0.951805         0.779665
 C         3.650773        -0.716492        -0.132730
 O         2.327948        -0.997823        -0.558841
 H        -0.669964         0.486175         0.550963
 H        -0.059943         0.845979        -1.136163
 H        -0.373106        -0.952849        -0.397704
 H         0.467544        -0.502647         2.273005
 H         0.741661        -2.004884         1.387485
 H         2.755578        -0.607595         3.242973
 H         2.699795        -2.247491         2.789622
 H         4.854453        -1.342780         1.786299
 H         4.432288         1.198052         0.790981
 H         4.468295        -0.924976        -0.857277
