19
Iteration:   231charge 0 multiplicity 1
 C         0.175374         0.137208        -0.386419
 C         1.394331        -0.193215         0.429218
 C         1.264777        -1.056071         1.748474
 C         2.711565        -1.504187         2.330918
 C         3.825608        -0.872304         1.459841
 C         3.528970         0.524691         0.759872
 O         2.172328         1.015028         0.598419
 C         3.557481        -0.776710        -0.016232
 O         2.270739        -0.950583        -0.469153
 H        -0.638718         0.655503         0.127825
 H         0.565513         0.771422        -1.131992
 H        -0.114101        -0.718066        -0.978467
 H         0.693265        -0.472558         2.494289
 H         0.869455        -1.991751         1.323571
 H         2.871585        -1.078371         3.336920
 H         2.768064        -2.592154         2.243778
 H         4.918875        -1.149150         1.726953
 H         4.281458         1.322887         0.835773
 H         4.250010        -0.939440        -0.864913
