19
Iteration:  3451
 C         0.144137         0.111178        -0.291663
 C         1.497530        -0.216185         0.387821
 C         1.238736        -0.823683         1.791793
 C         2.582807        -1.168429         2.432012
 C         3.749254        -0.881986         1.454980
 C         3.584002         0.383686         0.706502
 O         2.312001         0.940346         0.541284
 C         3.546145        -0.919843        -0.126771
 O         2.289982        -1.108248        -0.487840
 H        -0.296787         1.098937         0.077696
 H         0.156875         0.323998        -1.373032
 H        -0.672154        -0.687705        -0.204539
 H         0.666522        -0.130301         2.387482
 H         0.561728        -1.771313         1.579446
 H         2.792133        -0.638626         3.387184
 H         2.777731        -2.234808         2.549100
 H         4.720729        -1.063801         1.946782
 H         4.338708         1.073664         0.477379
 H         4.273629        -1.158589        -0.855800
