19
Iteration:   738
 C         0.242671         0.073922        -0.374530
 C         1.431074        -0.253751         0.418635
 C         1.253398        -1.231237         1.529268
 C         2.608216        -1.204279         2.367299
 C         3.789641        -0.886298         1.457208
 C         3.578359         0.534192         0.648482
 O         2.236713         0.933831         0.915131
 C         3.571788        -0.777326        -0.009663
 O         2.244345        -0.857064        -0.560499
 H        -0.566046         0.498994         0.221309
 H         0.343547         0.806399        -1.194455
 H        -0.297658        -0.861260        -0.662657
 H         0.633971        -0.804645         2.370228
 H         0.991687        -2.193551         0.994348
 H         2.563003        -0.424965         3.181568
 H         2.767293        -2.239124         2.800772
 H         4.781084        -1.341024         1.667611
 H         4.265767         1.345259         0.422683
 H         4.176621        -1.123420        -0.821546
