19
Iteration:  3419
 C         0.148288         0.154664        -0.379685
 C         1.464908        -0.238794         0.430570
 C         1.320143        -0.787871         1.778811
 C         2.612313        -1.379778         2.272605
 C         3.780217        -0.776307         1.508860
 C         3.607542         0.530858         0.614874
 O         2.271007         0.992634         0.442748
 C         3.495877        -0.980396         0.064062
 O         2.214717        -1.136668        -0.302113
 H        -0.323205         0.942258         0.275735
 H         0.610194         0.591772        -1.288178
 H        -0.345338        -0.812404        -0.647480
 H         0.974953        -0.078507         2.459975
 H         0.449096        -1.541391         1.669489
 H         2.833707        -1.336230         3.376731
 H         2.774956        -2.433687         1.952126
 H         4.790587        -1.061574         1.814028
 H         4.194430         1.293485         0.221628
 H         4.172294        -1.579644        -0.476867
