19
Iteration:   823charge 0 multiplicity 1
 C         0.133422         0.049310        -0.365852
 C         1.461446        -0.241417         0.388846
 C         1.223925        -1.050409         1.627104
 C         2.624642        -1.415871         2.271919
 C         3.770384        -0.774000         1.517353
 C         3.606271         0.573508         0.724161
 O         2.246438         0.955027         0.828164
 C         3.617098        -0.765054        -0.065148
 O         2.249379        -0.951892        -0.544014
 H        -0.419158         0.824288         0.206267
 H         0.452586         0.370387        -1.400458
 H        -0.322400        -0.971920        -0.368897
 H         0.609889        -0.589242         2.422474
 H         0.605073        -1.852157         1.408107
 H         2.688829        -1.125443         3.341938
 H         2.652950        -2.565690         2.255853
 H         4.771994        -0.908995         1.836224
 H         4.493500         1.203486         0.474021
 H         4.344078        -0.993271        -0.811923
