19
Iteration:  2426
 C         0.098972         0.115651        -0.242612
 C         1.439449        -0.186824         0.360176
 C         1.273622        -0.867506         1.704272
 C         2.637155        -1.386585         2.338629
 C         3.747031        -0.851404         1.483220
 C         3.581527         0.465608         0.780957
 O         2.339082         1.050286         0.472394
 C         3.593695        -0.881998        -0.040840
 O         2.257403        -1.066868        -0.448263
 H        -0.688605         0.440804         0.452334
 H         0.227318         0.640352        -1.214073
 H        -0.213633        -0.917686        -0.420643
 H         0.539463        -0.207994         2.307389
 H         0.741181        -1.812225         1.350208
 H         2.737792        -1.176223         3.524893
 H         2.470858        -2.426069         2.245751
 H         4.712954        -1.141838         1.800317
 H         4.304965         1.339016         0.770191
 H         4.230433        -1.401624        -0.726456
