19
Iteration:   325charge 0 multiplicity 1
 C         0.197967         0.279926        -0.246088
 C         1.436301        -0.283808         0.378415
 C         1.318925        -1.351369         1.568895
 C         2.609987        -1.311145         2.364896
 C         3.804516        -0.715980         1.551528
 C         3.589931         0.527633         0.628737
 O         2.181115         0.904321         0.719658
 C         3.535121        -0.852947         0.031772
 O         2.256160        -0.880587        -0.546054
 H        -0.352499         1.062766         0.327782
 H         0.359828         0.739992        -1.219982
 H        -0.550306        -0.444649        -0.518197
 H         0.460835        -1.141092         2.126114
 H         1.260504        -2.286660         1.040446
 H         2.540664        -0.736638         3.214510
 H         2.946673        -2.282169         2.581246
 H         4.754245        -0.998778         1.864706
 H         4.338237         1.315567         0.211260
 H         4.386359        -1.165806        -0.651715
