19
Iteration:  1842
 C         0.145083         0.185372        -0.317786
 C         1.452523        -0.181814         0.366094
 C         1.274771        -0.942150         1.746805
 C         2.620930        -1.474506         2.186290
 C         3.814703        -0.760378         1.515862
 C         3.570231         0.489114         0.736595
 O         2.194691         0.980186         0.537932
 C         3.595413        -0.802230         0.011915
 O         2.284490        -1.110777        -0.380194
 H        -0.501414         0.640285         0.442934
 H         0.344677         0.702135        -1.360844
 H        -0.260024        -0.800511        -0.555683
 H         0.738369        -0.384909         2.427827
 H         0.583234        -1.777291         1.630719
 H         2.762112        -1.453029         3.309932
 H         2.597158        -2.461180         1.792938
 H         4.859234        -0.971586         1.894914
 H         4.266409         1.393287         0.754395
 H         4.317109        -1.009657        -0.723290
