19
Iteration:    49
 C         0.206928         0.134262        -0.216283
 C         1.469107        -0.243200         0.370611
 C         1.266180        -1.190403         1.634122
 C         2.607235        -1.197441         2.470800
 C         3.756813        -0.835967         1.426502
 C         3.564135         0.414939         0.763081
 O         2.258777         0.960931         0.747441
 C         3.515527        -0.846574        -0.108871
 O         2.266933        -0.830559        -0.657437
 H        -0.485662         0.454338         0.649061
 H         0.244013         0.732091        -1.201458
 H        -0.080337        -0.912841        -0.723991
 H         0.352097        -0.838868         2.154383
 H         1.154039        -2.203939         1.232325
 H         2.607071        -0.393260         3.215655
 H         2.825429        -2.253040         2.854182
 H         4.727440        -1.354465         1.658059
 H         4.358696         1.127102         0.465253
 H         4.310921        -1.311718        -0.736788
