19
Iteration:  3651
 C         0.177756         0.134269        -0.270987
 C         1.411926        -0.227761         0.414363
 C         1.255724        -0.779055         1.804321
 C         2.569050        -1.386669         2.271943
 C         3.728993        -0.746093         1.582834
 C         3.586316         0.449472         0.650952
 O         2.348032         0.992847         0.435011
 C         3.598601        -0.851878        -0.083318
 O         2.240849        -1.204736        -0.403905
 H        -0.391822         0.979318         0.225411
 H         0.351368         0.357958        -1.348409
 H        -0.635784        -0.677844        -0.311060
 H         1.118876         0.196354         2.344167
 H         0.335994        -1.530892         1.990227
 H         2.771530        -1.316607         3.343644
 H         2.697517        -2.441674         2.010982
 H         4.678993        -0.997898         1.957019
 H         4.449078         0.987254         0.632881
 H         4.321085        -1.327853        -0.702489
