19
Iteration:  3101charge 0 multiplicity 1
 C         0.054786         0.111698        -0.211553
 C         1.416547        -0.154111         0.295590
 C         1.262457        -0.967850         1.680265
 C         2.617317        -1.280846         2.422221
 C         3.737755        -0.859067         1.536803
 C         3.652463         0.423897         0.719307
 O         2.318232         1.030393         0.423827
 C         3.600025        -0.950843         0.021619
 O         2.259655        -1.057801        -0.510814
 H        -0.264587         0.974100         0.350292
 H         0.173341         0.336300        -1.318661
 H        -0.670403        -0.623976         0.076205
 H         0.693498        -0.261127         2.272715
 H         0.676449        -1.943381         1.460724
 H         2.700755        -0.653894         3.317991
 H         2.756846        -2.355515         2.705794
 H         4.734615        -0.752960         1.978175
 H         4.528747         1.051992         0.688638
 H         4.387371        -1.261456        -0.636811
