19
Iteration:  3399
 C         0.189973         0.201949        -0.362886
 C         1.478080        -0.248271         0.409457
 C         1.258300        -0.702081         1.938641
 C         2.578303        -1.436026         2.265112
 C         3.790515        -0.743621         1.532701
 C         3.520149         0.428205         0.591166
 O         2.259164         0.963921         0.439661
 C         3.651399        -0.874868        -0.052408
 O         2.198028        -1.258395        -0.352778
 H        -0.513401         0.809812         0.200938
 H         0.403081         0.861874        -1.287221
 H        -0.182661        -0.747631        -0.817404
 H         1.040072         0.108357         2.582778
 H         0.418706        -1.394010         2.013323
 H         2.812173        -1.317180         3.344022
 H         2.702451        -2.480896         1.885615
 H         4.786673        -0.728273         2.004191
 H         4.310119         1.165433         0.677988
 H         4.361334        -1.131709        -0.771393
