19
Iteration:  2165
 C         0.196314         0.270406        -0.232431
 C         1.449243        -0.296413         0.343750
 C         1.284303        -1.185756         1.565935
 C         2.562267        -1.221669         2.414013
 C         3.749371        -0.744816         1.512292
 C         3.598981         0.476655         0.592969
 O         2.256034         1.003497         0.682364
 C         3.589517        -0.877178         0.011897
 O         2.234761        -1.082480        -0.573088
 H        -0.188818         0.878817         0.617138
 H         0.467932         1.012087        -1.098657
 H        -0.639410        -0.459930        -0.317707
 H         0.588820        -0.903702         2.384277
 H         1.070313        -2.100794         1.150548
 H         2.458870        -0.558797         3.287817
 H         2.822515        -2.281553         2.853960
 H         4.755126        -1.103915         1.962775
 H         4.323242         1.209913         0.499619
 H         4.384145        -1.535345        -0.511624
