19
Iteration:  3086charge 0 multiplicity 1
 C         0.184140         0.206532        -0.222330
 C         1.538750        -0.221712         0.401263
 C         1.293143        -1.011503         1.656843
 C         2.565943        -1.170895         2.440962
 C         3.697409        -0.759513         1.502296
 C         3.587215         0.457306         0.650658
 O         2.331108         0.902214         0.516160
 C         3.558672        -0.933523        -0.039996
 O         2.220515        -1.077156        -0.507892
 H        -0.310227         1.067829         0.310443
 H         0.131954         0.362400        -1.304215
 H        -0.501680        -0.682869        -0.071167
 H         0.435221        -0.720296         2.233921
 H         0.951134        -1.934050         1.225659
 H         2.542975        -0.546887         3.418741
 H         2.696673        -2.203724         2.754067
 H         4.712911        -1.138787         1.760615
 H         4.252955         1.313686         0.676342
 H         4.221605        -1.570684        -0.732934
