19
Iteration:  4420charge 0 multiplicity 1
 C         0.183827         0.133467        -0.280610
 C         1.477046        -0.204061         0.361247
 C         1.317144        -0.683841         1.827383
 C         2.563550        -1.244256         2.284036
 C         3.698262        -0.843166         1.487578
 C         3.622429         0.420946         0.661777
 O         2.313715         0.907941         0.490113
 C         3.556258        -0.980373        -0.038561
 O         2.221680        -1.184557        -0.412302
 H        -0.449417         0.651815         0.404493
 H         0.290264         0.779401        -1.211955
 H        -0.323335        -0.765785        -0.592305
 H         0.888544         0.314094         2.305972
 H         0.462680        -1.280297         1.789686
 H         2.823293        -0.912392         3.341687
 H         2.494488        -2.318765         2.275883
 H         4.647023        -1.070284         1.941409
 H         4.355118         1.223753         0.536491
 H         4.282941        -1.442615        -0.588926
