19
Iteration:  3846
 C         0.246615         0.178580        -0.463581
 C         1.417952        -0.166058         0.506747
 C         1.261874        -0.821825         1.917881
 C         2.628848        -1.415742         2.268635
 C         3.743600        -0.782709         1.476915
 C         3.576123         0.503836         0.526518
 O         2.344995         0.972087         0.453332
 C         3.549575        -0.923313         0.018630
 O         2.133552        -1.160804        -0.281144
 H        -0.368695         1.088850        -0.127478
 H         0.806344         0.504611        -1.330842
 H        -0.407599        -0.725825        -0.646748
 H         1.065407        -0.067175         2.626701
 H         0.321705        -1.469639         1.860531
 H         2.850479        -1.390663         3.361828
 H         2.513674        -2.559327         2.021545
 H         4.773188        -0.950967         1.785951
 H         4.455281         1.193568         0.353693
 H         4.291848        -1.530543        -0.591836
