19
Iteration:  2036
 C         0.146928         0.151615        -0.387638
 C         1.450893        -0.253103         0.411512
 C         1.288479        -0.809601         1.833538
 C         2.594359        -1.589151         2.131465
 C         3.781251        -0.733567         1.550947
 C         3.487212         0.521326         0.709661
 O         2.208219         0.917737         0.556692
 C         3.611446        -0.809384         0.060974
 O         2.329680        -1.076061        -0.443784
 H        -0.376633         0.717572         0.326956
 H         0.463309         0.832277        -1.200858
 H        -0.385356        -0.622576        -0.801688
 H         1.178914         0.123660         2.462706
 H         0.400952        -1.441198         2.164757
 H         2.745672        -1.619429         3.168489
 H         2.778578        -2.620719         1.726004
 H         4.786345        -0.973423         2.054496
 H         4.215913         1.268472         0.450844
 H         4.314683        -0.926543        -0.797012
