19
Iteration:  4166charge 0 multiplicity 1
 C         0.183198         0.062611        -0.334431
 C         1.419386        -0.173680         0.408595
 C         1.237317        -0.732892         1.802508
 C         2.667326        -1.226571         2.451146
 C         3.699798        -0.916436         1.481345
 C         3.591497         0.374802         0.683739
 O         2.328244         0.992190         0.498906
 C         3.573617        -1.006312        -0.050084
 O         2.216121        -1.078002        -0.552040
 H        -0.280233         0.944919         0.092732
 H         0.435560         0.198884        -1.400671
 H        -0.513021        -0.734235        -0.109182
 H         0.874266         0.141031         2.415094
 H         0.451690        -1.573455         1.912181
 H         2.794169        -0.546080         3.299151
 H         2.536676        -2.223319         2.870031
 H         4.718308        -1.108270         1.783776
 H         4.581253         0.859426         0.538630
 H         4.283189        -1.220575        -0.788611
