19
Iteration:  2311
 C         0.129854         0.127737        -0.216241
 C         1.480149        -0.241639         0.326605
 C         1.223303        -0.944410         1.645222
 C         2.575132        -1.298378         2.413855
 C         3.754155        -0.834743         1.550642
 C         3.621436         0.487937         0.635210
 O         2.287083         0.945675         0.612635
 C         3.577182        -0.946485         0.047982
 O         2.285370        -0.963905        -0.637264
 H        -0.290751         0.623434         0.679371
 H         0.145545         0.659094        -1.127249
 H        -0.527057        -0.809244        -0.297608
 H         0.674059        -0.300653         2.273651
 H         0.624477        -1.843787         1.426751
 H         2.635390        -0.750643         3.361772
 H         2.766795        -2.448609         2.672815
 H         4.762633        -1.007571         1.948823
 H         4.391470         1.247993         0.401603
 H         4.383656        -1.329029        -0.708077
