19
Iteration:  3281
 C         0.222496         0.287208        -0.334657
 C         1.401471        -0.334340         0.373083
 C         1.217401        -1.142186         1.792012
 C         2.640117        -0.967844         2.447050
 C         3.806124        -0.826295         1.415548
 C         3.650920         0.414073         0.582257
 O         2.257160         0.884067         0.698671
 C         3.549854        -0.929650        -0.029311
 O         2.207602        -1.103010        -0.522799
 H         0.070485         1.262128         0.062367
 H         0.493569         0.512445        -1.402192
 H        -0.703665        -0.224293        -0.575018
 H         0.298770        -0.716578         2.462470
 H         0.863739        -2.077828         1.385266
 H         2.595051        -0.126802         3.120069
 H         2.595612        -1.881250         3.077537
 H         4.855855        -1.084064         1.669201
 H         4.378447         1.045502         0.193372
 H         4.312359        -1.281006        -0.669542
