19
Iteration:  1961
 C         0.116412         0.237030        -0.245086
 C         1.454142        -0.247160         0.266175
 C         1.295532        -1.049617         1.623749
 C         2.656257        -1.286943         2.391115
 C         3.730337        -0.769123         1.556199
 C         3.542915         0.474978         0.734418
 O         2.219139         0.876933         0.676134
 C         3.597156        -0.872667         0.035836
 O         2.294316        -1.027603        -0.670314
 H        -0.207064         0.814009         0.599065
 H         0.330103         0.853536        -1.159127
 H        -0.554728        -0.539260        -0.470805
 H         0.637520        -0.642627         2.321680
 H         0.836404        -2.089836         1.588544
 H         2.556018        -0.673143         3.297684
 H         2.923660        -2.291083         2.652938
 H         4.813901        -0.917783         1.869919
 H         4.363862         1.192151         0.517469
 H         4.427211        -1.189024        -0.581857
