19
Iteration:  1482charge 0 multiplicity 1
 C         0.183301         0.297376        -0.325278
 C         1.417826        -0.240251         0.404927
 C         1.290472        -1.184513         1.619844
 C         2.644964        -1.235268         2.413764
 C         3.781421        -0.803650         1.443123
 C         3.604951         0.487667         0.672995
 O         2.167730         0.919919         0.662055
 C         3.596506        -0.846726        -0.064332
 O         2.229052        -1.067469        -0.470467
 H        -0.377522         0.993435         0.274738
 H         0.547479         1.028124        -1.006837
 H        -0.483195        -0.464762        -0.776621
 H         0.442081        -0.863166         2.306928
 H         1.040245        -2.173477         1.336803
 H         2.649292        -0.687198         3.427329
 H         2.995790        -2.327447         2.652590
 H         4.849363        -0.920450         1.746238
 H         4.353981         1.322850         0.676761
 H         4.451689        -1.299118        -0.599375
