19
Iteration:  1448charge 0 multiplicity 1
 C         0.216804         0.288746        -0.266241
 C         1.419631        -0.268466         0.378838
 C         1.262359        -1.221937         1.580737
 C         2.621268        -1.115360         2.419923
 C         3.808644        -0.768481         1.402071
 C         3.611312         0.452202         0.673703
 O         2.191194         0.865487         0.779257
 C         3.598506        -0.860844        -0.065148
 O         2.231061        -1.050025        -0.567613
 H        -0.249040         0.944461         0.439132
 H         0.526961         0.706702        -1.246617
 H        -0.503986        -0.474705        -0.524557
 H         0.583733        -0.717399         2.295136
 H         0.889746        -2.210395         1.265030
 H         2.491240        -0.344084         3.229473
 H         2.776697        -2.146157         2.978280
 H         4.833873        -1.046731         1.850848
 H         4.200667         1.360952         0.624827
 H         4.287599        -1.248822        -0.700912
