19
Iteration:  2416charge 0 multiplicity 1
 C         0.081862         0.154762        -0.240645
 C         1.479612        -0.174444         0.363652
 C         1.251427        -0.946420         1.691490
 C         2.618528        -1.363923         2.315672
 C         3.762706        -0.859610         1.475258
 C         3.578663         0.448126         0.761492
 O         2.304433         0.995433         0.451632
 C         3.662566        -0.885592         0.020627
 O         2.209717        -1.052749        -0.455990
 H        -0.550245         0.817569         0.377908
 H         0.186621         0.789260        -1.113780
 H        -0.468493        -0.741150        -0.555855
 H         0.610091        -0.522710         2.504133
 H         0.723146        -1.874515         1.412237
 H         2.750001        -0.780578         3.349532
 H         2.825930        -2.373846         2.523850
 H         4.741481        -0.831714         1.910376
 H         4.431174         1.183224         0.828423
 H         4.358364        -1.276767        -0.739315
