19
Iteration:    88charge 0 multiplicity 1
 C         0.189495         0.347454        -0.295900
 C         1.417429        -0.235230         0.353224
 C         1.258215        -1.228496         1.547253
 C         2.679286        -1.202111         2.314488
 C         3.869188        -0.803146         1.433461
 C         3.512981         0.476559         0.782250
 O         2.131301         0.903587         0.726377
 C         3.587950        -0.880248        -0.016436
 O         2.284112        -1.080858        -0.468160
 H        -0.211934         1.030082         0.475540
 H         0.543273         0.976859        -1.019197
 H        -0.481372        -0.385623        -0.559542
 H         0.485009        -0.980535         2.294370
 H         1.067686        -2.222025         1.117643
 H         2.647138        -0.598626         3.219143
 H         2.814512        -2.204874         2.692430
 H         4.882397        -0.852819         1.655218
 H         4.153709         1.325928         0.455614
 H         4.331414        -1.009564        -0.793777
