19
Iteration:   640
 C         0.178947         0.027808        -0.357692
 C         1.443290        -0.162525         0.397303
 C         1.291135        -0.969172         1.742472
 C         2.636300        -1.621202         2.148297
 C         3.816778        -0.885494         1.499181
 C         3.462195         0.530829         0.772969
 O         2.120440         1.118257         0.569206
 C         3.656696        -0.672700        -0.023240
 O         2.336672        -1.046292        -0.388935
 H        -0.468039         0.759069         0.150765
 H         0.374486         0.700967        -1.198825
 H        -0.514423        -0.819444        -0.507588
 H         1.036502        -0.171010         2.558208
 H         0.564150        -1.944955         1.819083
 H         2.747089        -1.695802         3.219958
 H         2.603464        -2.642327         1.894557
 H         4.750927        -0.946687         2.014988
 H         4.326867         1.268552         0.881761
 H         4.496888        -0.677985        -0.784481
