19
Iteration:  2032
 C         0.170055         0.135180        -0.436969
 C         1.441355        -0.262992         0.414976
 C         1.306549        -0.799016         1.865012
 C         2.588832        -1.587338         2.110565
 C         3.810956        -0.764021         1.561545
 C         3.526776         0.524411         0.703339
 O         2.191946         0.940787         0.602405
 C         3.596294        -0.790895         0.032082
 O         2.289125        -1.072786        -0.444030
 H        -0.465949         0.649957         0.363298
 H         0.447574         0.719295        -1.308532
 H        -0.507831        -0.741641        -0.874706
 H         1.097600         0.112086         2.511030
 H         0.399746        -1.312402         2.007803
 H         2.844155        -1.551804         3.211831
 H         2.718248        -2.656093         1.737126
 H         4.792847        -0.843240         1.956921
 H         4.374066         1.297743         0.552624
 H         4.367717        -1.081926        -0.610557
