19
Iteration:  3885charge 0 multiplicity 1
 C         0.123297         0.183050        -0.217920
 C         1.443219        -0.236274         0.338404
 C         1.263759        -0.682680         1.781407
 C         2.542575        -1.352375         2.284358
 C         3.715808        -0.842809         1.466251
 C         3.630963         0.373081         0.657720
 O         2.326682         0.916333         0.437038
 C         3.648674        -0.918659         0.012896
 O         2.230814        -1.149354        -0.396579
 H        -0.447741         0.603923         0.559867
 H         0.291373         0.842093        -1.107164
 H        -0.406874        -0.647056        -0.664362
 H         1.116354         0.372612         2.259245
 H         0.552047        -1.419828         2.009869
 H         2.638084        -0.911380         3.265904
 H         2.575621        -2.390274         2.276438
 H         4.696314        -0.832328         1.929357
 H         4.241802         1.219655         0.521294
 H         4.462256        -1.452218        -0.496590
