19
Iteration:  4044
 C         0.086872         0.082067        -0.324936
 C         1.442546        -0.218272         0.337410
 C         1.194785        -0.699123         1.789690
 C         2.612309        -1.154881         2.491732
 C         3.730326        -0.905521         1.486530
 C         3.717924         0.327093         0.624974
 O         2.381623         0.929387         0.585814
 C         3.548951        -0.995609        -0.089797
 O         2.221122        -1.047097        -0.516493
 H        -0.638425         0.459313         0.363269
 H         0.151728         0.629308        -1.281016
 H        -0.338597        -0.893533        -0.518803
 H         0.749796         0.142584         2.278634
 H         0.437880        -1.583398         1.785898
 H         2.823468        -0.482510         3.281914
 H         2.680419        -2.232038         2.757054
 H         4.731346        -1.206739         1.831524
 H         4.441147         1.090741         0.466365
 H         4.374283        -1.325286        -0.779569
