19
Iteration:   761
 C         0.141730         0.228034        -0.214054
 C         1.439935        -0.295824         0.361824
 C         1.273442        -1.262796         1.533471
 C         2.568852        -1.172534         2.385218
 C         3.739188        -0.767722         1.462196
 C         3.606259         0.484886         0.768816
 O         2.225118         0.838134         0.794128
 C         3.638781        -0.785034        -0.047681
 O         2.309369        -0.963643        -0.661341
 H        -0.522421         0.680766         0.513340
 H         0.327010         1.072489        -0.904850
 H        -0.527874        -0.538799        -0.659537
 H         0.387726        -0.969276         2.181015
 H         1.220202        -2.296493         1.050973
 H         2.558329        -0.376859         3.151939
 H         2.789791        -2.134308         2.856539
 H         4.803410        -0.938836         1.823616
 H         4.210241         1.323735         0.699358
 H         4.362688        -1.019836        -0.750312
