19
Iteration:  4502
 C         0.111965         0.183856        -0.292910
 C         1.433922        -0.223767         0.366437
 C         1.198172        -0.753101         1.778987
 C         2.616419        -1.075175         2.396650
 C         3.761984        -0.961690         1.394194
 C         3.599400         0.354337         0.596375
 O         2.345568         0.843906         0.605713
 C         3.558790        -0.972513        -0.013920
 O         2.314808        -1.093572        -0.469120
 H        -0.383298         1.118759         0.103375
 H         0.283744         0.402790        -1.316124
 H        -0.665597        -0.622605        -0.337722
 H         0.591563         0.109818         2.201416
 H         0.477938        -1.694081         1.828999
 H         2.899832        -0.429645         3.163548
 H         2.559940        -2.104959         2.884804
 H         4.720721        -1.343723         1.839469
 H         4.277870         1.184773         0.576508
 H         4.367821        -1.312693        -0.756903
