19
Iteration:  4828
 C         0.162063         0.201603        -0.359107
 C         1.433765        -0.163406         0.419121
 C         1.168263        -0.818362         1.787781
 C         2.646769        -1.131609         2.404018
 C         3.813461        -0.849242         1.430795
 C         3.583611         0.295402         0.534905
 O         2.333904         0.948705         0.692438
 C         3.576957        -1.035876        -0.039854
 O         2.220696        -1.139541        -0.467383
 H        -0.545290         0.857178         0.133500
 H         0.417042         0.734343        -1.346831
 H        -0.337173        -0.684671        -0.759614
 H         0.429328        -0.143137         2.397948
 H         0.591658        -1.690427         1.582198
 H         2.786278        -0.616811         3.371400
 H         2.699915        -2.129539         2.517231
 H         4.831769        -0.819848         1.897575
 H         4.467484         0.934812         0.445596
 H         4.226433        -1.430522        -0.882037
