19
Iteration:  2469
 C         0.158923         0.037835        -0.462575
 C         1.435366        -0.257908         0.415593
 C         1.295285        -0.697892         1.899922
 C         2.614212        -1.397584         2.237715
 C         3.780626        -0.841536         1.427997
 C         3.596573         0.459799         0.729984
 O         2.226523         0.961353         0.586746
 C         3.579989        -0.819779        -0.035453
 O         2.270936        -1.099860        -0.411786
 H        -0.630540         0.574074         0.123146
 H         0.488796         0.861789        -1.138143
 H        -0.391266        -0.790466        -0.900303
 H         1.085035         0.271833         2.511132
 H         0.479631        -1.463083         2.182281
 H         2.707428        -1.736649         3.342101
 H         2.468220        -2.351264         1.698757
 H         4.795254        -0.997585         1.689509
 H         4.327931         1.270027         0.935200
 H         4.237351        -1.272344        -0.714846
