19
Iteration:  4740
 C         0.183261         0.143552        -0.353568
 C         1.481930        -0.156679         0.409103
 C         1.222602        -0.748219         1.822819
 C         2.598514        -1.248823         2.304170
 C         3.734387        -0.902930         1.480923
 C         3.616630         0.367657         0.595846
 O         2.326663         0.993091         0.565931
 C         3.512326        -0.967931        -0.043035
 O         2.229129        -1.153279        -0.421928
 H        -0.378930         0.946761         0.091865
 H         0.353051         0.451861        -1.418116
 H        -0.314919        -0.829344        -0.323816
 H         0.872604         0.017288         2.589976
 H         0.522285        -1.481399         1.668650
 H         2.959030        -0.850504         3.291362
 H         2.584825        -2.282238         2.443295
 H         4.677229        -1.038755         2.025446
 H         4.513554         1.010740         0.550332
 H         4.179699        -1.277914        -0.735397
