19
Iteration:  2070
 C         0.099989         0.130454        -0.214493
 C         1.462403        -0.167552         0.324253
 C         1.217507        -0.927500         1.675176
 C         2.621427        -1.503051         2.245961
 C         3.715312        -0.787726         1.502318
 C         3.542365         0.555866         0.747452
 O         2.305603         1.010553         0.484338
 C         3.640954        -0.847478         0.032961
 O         2.339318        -1.112151        -0.416283
 H        -0.431352         0.637952         0.563247
 H         0.143863         0.899492        -1.005884
 H        -0.512843        -0.666365        -0.417135
 H         0.700152        -0.360883         2.457420
 H         0.596934        -1.852905         1.294329
 H         2.639981        -1.168234         3.262083
 H         2.670598        -2.620415         2.280664
 H         4.728959        -1.000510         1.995557
 H         4.207694         1.355102         0.641906
 H         4.401814        -1.086224        -0.843305
