19
Iteration:  3979
 C         0.304722         0.394853        -0.300581
 C         1.396927        -0.372447         0.346059
 C         1.221305        -1.021259         1.726038
 C         2.664537        -1.013343         2.466499
 C         3.798164        -0.763146         1.447945
 C         3.624367         0.412367         0.581368
 O         2.215192         0.854387         0.577028
 C         3.540792        -1.014831         0.061453
 O         2.147915        -1.165879        -0.497171
 H         0.160250         1.293008         0.274742
 H         0.772566         0.648195        -1.277465
 H        -0.673885         0.004955        -0.515577
 H         0.540650        -0.465361         2.294802
 H         0.852054        -2.063782         1.559170
 H         2.692977        -0.195393         3.218102
 H         2.775400        -2.018017         2.992048
 H         4.792802        -1.211912         1.583774
 H         4.487982         0.957057         0.337316
 H         4.229142        -1.495971        -0.605935
