19
Iteration:  4387charge 0 multiplicity 1
 C         0.089118         0.063863        -0.425414
 C         1.506567        -0.180179         0.356280
 C         1.328570        -0.720355         1.909499
 C         2.603500        -1.314882         2.455053
 C         3.670006        -0.865971         1.570244
 C         3.614087         0.339654         0.632655
 O         2.382682         0.977390         0.465658
 C         3.522806        -0.927977        -0.099128
 O         2.190211        -1.065600        -0.466944
 H        -0.495128         0.748807         0.163946
 H         0.332759         0.520560        -1.404623
 H        -0.386034        -0.904933        -0.514814
 H         1.178764         0.353031         2.429270
 H         0.500458        -1.413282         1.947289
 H         2.954502        -0.959751         3.463565
 H         2.498863        -2.377749         2.583746
 H         4.662217        -1.014042         2.007561
 H         4.420758         1.036965         0.437846
 H         4.208524        -1.363710        -0.803788
