19
Iteration:  3560
 C         0.153225         0.159263        -0.321937
 C         1.437360        -0.269682         0.354599
 C         1.251754        -0.846692         1.703432
 C         2.645017        -1.168522         2.446484
 C         3.756268        -0.825839         1.468254
 C         3.625456         0.416236         0.667159
 O         2.348515         0.941912         0.629274
 C         3.559534        -0.951591        -0.076917
 O         2.199915        -1.134518        -0.499041
 H        -0.506006         0.489145         0.487849
 H         0.110717         0.840152        -1.197635
 H        -0.345685        -0.777176        -0.622361
 H         0.850075        -0.051069         2.298193
 H         0.499166        -1.740467         1.584520
 H         2.537911        -0.481910         3.263722
 H         2.695193        -2.168673         2.844173
 H         4.719147        -1.229892         1.924683
 H         4.291158         1.303271         0.346779
 H         4.292671        -1.318650        -0.823452
