19
Iteration:   503charge 0 multiplicity 1
 C         0.139748         0.120044        -0.338428
 C         1.451173        -0.212738         0.437235
 C         1.252392        -1.240918         1.553096
 C         2.597571        -1.213285         2.333535
 C         3.737717        -0.961072         1.413743
 C         3.587271         0.472500         0.764793
 O         2.221786         0.915080         0.794973
 C         3.614324        -0.681809        -0.117420
 O         2.323095        -0.903248        -0.506885
 H        -0.370062         0.874669         0.252171
 H         0.418232         0.512216        -1.339803
 H        -0.397046        -0.844092        -0.213857
 H         0.487941        -0.808359         2.181124
 H         1.099388        -2.250910         1.174437
 H         2.541024        -0.283326         3.003334
 H         2.632050        -2.118196         3.092849
 H         4.832310        -1.218806         1.896676
 H         4.297554         1.337159         0.881104
 H         4.236279        -0.834654        -1.009331
