19
Iteration:   939
 C         0.186774         0.094633        -0.332490
 C         1.431005        -0.313278         0.363219
 C         1.309482        -1.000541         1.707002
 C         2.685866        -1.394469         2.341987
 C         3.747408        -0.864788         1.470709
 C         3.461929         0.450763         0.787327
 O         2.196459         0.959425         0.676477
 C         3.586634        -0.744378        -0.061160
 O         2.305986        -0.886966        -0.584078
 H        -0.487846         0.567482         0.385156
 H         0.450899         0.820650        -1.101397
 H        -0.256447        -0.733637        -0.848083
 H         0.654588        -0.439371         2.309737
 H         0.594244        -1.908290         1.600930
 H         2.709427        -0.902200         3.339530
 H         2.956215        -2.461360         2.601934
 H         4.761207        -1.017079         1.708593
 H         4.297836         1.178221         0.987078
 H         4.426739        -1.048325        -0.699723
