19
Iteration:  1534
 C         0.112882        -0.050312        -0.324768
 C         1.432035        -0.172355         0.336103
 C         1.242129        -0.842815         1.778560
 C         2.564067        -1.425233         2.269712
 C         3.749953        -0.827336         1.495039
 C         3.590728         0.532968         0.747068
 O         2.319806         0.956415         0.711737
 C         3.604288        -0.901372        -0.064995
 O         2.290387        -0.906792        -0.598407
 H        -0.626343         0.377937         0.336533
 H         0.084165         0.498348        -1.292540
 H        -0.200653        -1.103326        -0.384557
 H         0.948910        -0.092529         2.535925
 H         0.466826        -1.703645         1.995346
 H         2.708895        -1.054800         3.223564
 H         2.725555        -2.442526         2.164277
 H         4.857986        -1.094128         1.651523
 H         4.386905         1.306612         0.776259
 H         4.390982        -1.293403        -0.579675
