19
Iteration:  3237
 C         0.058276         0.120972        -0.242492
 C         1.409034        -0.236911         0.356808
 C         1.267958        -0.936033         1.693311
 C         2.628168        -1.092543         2.476031
 C         3.733727        -0.903123         1.511136
 C         3.641906         0.348042         0.664905
 O         2.373138         1.020428         0.541152
 C         3.535255        -0.972330        -0.008132
 O         2.279624        -1.056232        -0.574144
 H        -0.531396         0.738353         0.437066
 H         0.176318         0.734018        -1.134315
 H        -0.531023        -0.770132        -0.506530
 H         0.365186        -0.302257         2.192812
 H         1.009798        -1.959319         1.407384
 H         2.630109        -0.345680         3.253878
 H         2.810711        -2.121506         2.825869
 H         4.727684        -1.280532         1.876699
 H         4.313535         1.118441         0.556503
 H         4.355885        -1.229954        -0.720211
