19
Iteration:  4088
 C         0.237922         0.241062        -0.390528
 C         1.437701        -0.220132         0.445683
 C         1.154457        -0.817547         1.848160
 C         2.620875        -1.363547         2.354417
 C         3.822555        -0.754029         1.491204
 C         3.585144         0.474533         0.528054
 O         2.340916         0.952045         0.416081
 C         3.537128        -0.915027        -0.043012
 O         2.187493        -1.238460        -0.225956
 H        -0.390912         0.878604         0.188570
 H         0.742014         0.852348        -1.207013
 H        -0.247336        -0.589545        -0.851370
 H         0.866655        -0.110452         2.596006
 H         0.271471        -1.601291         1.754294
 H         2.727727        -1.072799         3.365887
 H         2.497612        -2.450933         2.223349
 H         4.875520        -0.822407         1.849018
 H         4.403830         1.156925         0.201932
 H         4.106819        -1.461203        -0.880330
