19
Iteration:    28charge 0 multiplicity 1
 C         0.020107         0.013068        -0.200924
 C         1.434792        -0.152548         0.329616
 C         1.283600        -1.053331         1.594094
 C         2.571777        -1.207157         2.334227
 C         3.781586        -0.982551         1.392228
 C         3.682490         0.451018         0.747220
 O         2.280970         0.920127         0.806397
 C         3.647385        -0.778054        -0.044829
 O         2.280161        -0.930397        -0.597590
 H        -0.617564         0.531608         0.609690
 H        -0.043828         0.642247        -1.190388
 H        -0.555498        -0.799252        -0.818149
 H         0.668673        -0.471615         2.308866
 H         0.810225        -2.023529         1.351240
 H         2.593498        -0.324433         3.018590
 H         2.555191        -2.247317         2.753343
 H         4.857289        -1.052315         1.803913
 H         4.364406         1.301710         0.951548
 H         4.392297        -0.932591        -0.863615
