19
Iteration:  1791charge 0 multiplicity 1
 C         0.150496         0.069223        -0.326130
 C         1.409022        -0.183343         0.428646
 C         1.298331        -0.751631         1.784489
 C         2.591987        -1.559596         2.221403
 C         3.776907        -0.863473         1.443787
 C         3.507474         0.482144         0.845834
 O         2.228791         0.958035         0.513606
 C         3.633629        -0.709363        -0.024208
 O         2.311381        -1.086106        -0.471960
 H        -0.564548         0.656129         0.243990
 H         0.613106         0.564544        -1.213336
 H        -0.199587        -0.958727        -0.424112
 H         0.960946         0.008175         2.691474
 H         0.432290        -1.451185         1.777731
 H         2.819964        -1.513403         3.280826
 H         2.456104        -2.588418         1.755557
 H         4.875368        -0.904316         1.756183
 H         4.181086         1.365893         0.735928
 H         4.424843        -0.990236        -0.673418
