19
Iteration:  1305charge 0 multiplicity 1
 C         0.164014        -0.023335        -0.328805
 C         1.474273        -0.159020         0.385082
 C         1.225385        -0.857562         1.748322
 C         2.614754        -1.443256         2.220907
 C         3.775422        -0.828109         1.436157
 C         3.594445         0.454051         0.751532
 O         2.239015         1.046919         0.681139
 C         3.561035        -0.822037        -0.019176
 O         2.299907        -0.992244        -0.489628
 H        -0.570536         0.456070         0.296736
 H         0.281948         0.326672        -1.361644
 H        -0.374692        -0.911795        -0.511911
 H         0.924000        -0.129254         2.502323
 H         0.537104        -1.643178         1.602496
 H         2.772005        -1.242199         3.321580
 H         2.471571        -2.600924         2.120216
 H         4.821397        -1.062192         1.792617
 H         4.414112         1.176005         0.823143
 H         4.248194        -1.136489        -0.891064
