19
Iteration:  3214charge 0 multiplicity 1
 C         0.183194         0.141601        -0.221892
 C         1.446769        -0.217090         0.331003
 C         1.177130        -0.797823         1.707778
 C         2.582120        -1.278336         2.462502
 C         3.735650        -0.788242         1.482691
 C         3.623720         0.421495         0.633788
 O         2.286729         0.869082         0.521873
 C         3.619804        -0.923228        -0.013000
 O         2.269872        -1.088893        -0.526155
 H        -0.478818         0.456892         0.630675
 H         0.189757         0.932802        -0.910273
 H        -0.206183        -0.815400        -0.643037
 H         0.854178         0.224448         2.306183
 H         0.540713        -1.681374         1.760012
 H         2.707141        -0.643489         3.311639
 H         2.640991        -2.392208         2.651173
 H         4.787585        -1.106244         1.652563
 H         4.317731         1.236864         0.511042
 H         4.379237        -1.454372        -0.717961
