19
Iteration:  1640charge 0 multiplicity 1
 C         0.099497         0.062523        -0.361963
 C         1.449915        -0.197719         0.409806
 C         1.269683        -0.998384         1.707735
 C         2.608674        -1.267590         2.410262
 C         3.770931        -0.953332         1.384176
 C         3.591322         0.428498         0.766306
 O         2.278186         1.002841         0.645461
 C         3.645671        -0.781659        -0.068980
 O         2.213113        -0.958184        -0.550379
 H        -0.409985         0.733249         0.320309
 H         0.330059         0.316210        -1.449093
 H        -0.274408        -0.956078        -0.396477
 H         0.637324        -0.473695         2.336950
 H         0.872176        -1.929842         1.342604
 H         2.830177        -0.713736         3.376161
 H         2.583464        -2.330999         2.896687
 H         4.778756        -1.117944         1.920608
 H         4.379766         1.147599         1.091586
 H         4.239530        -0.944663        -0.849617
