19
Iteration:   351charge 0 multiplicity 1
 C         0.135838         0.162768        -0.307671
 C         1.452118        -0.237403         0.337613
 C         1.274370        -1.042571         1.657809
 C         2.639004        -1.366609         2.273017
 C         3.800044        -0.878540         1.398170
 C         3.554153         0.525482         0.847940
 O         2.167507         0.943512         0.774231
 C         3.618440        -0.702396        -0.109055
 O         2.304820        -1.058393        -0.543160
 H        -0.488586         0.699287         0.417418
 H         0.229478         0.791493        -1.206663
 H        -0.381895        -0.780587        -0.658320
 H         0.501928        -0.540711         2.332103
 H         0.847593        -2.035118         1.318133
 H         2.868550        -0.730453         3.265752
 H         2.719767        -2.433647         2.639246
 H         4.891852        -1.031023         1.943319
 H         4.235404         1.304553         0.944429
 H         4.387846        -0.987887        -0.782597
