19
Iteration:  1698charge 0 multiplicity 1
 C         0.197713         0.343757        -0.221088
 C         1.415398        -0.249789         0.392198
 C         1.302070        -1.251950         1.586469
 C         2.616850        -1.109838         2.399411
 C         3.778120        -0.839301         1.498403
 C         3.576879         0.463461         0.657762
 O         2.191533         0.865333         0.666939
 C         3.590240        -0.789420        -0.053720
 O         2.299722        -1.101985        -0.548462
 H        -0.312057         0.971809         0.578909
 H         0.448928         1.086554        -0.958730
 H        -0.655972        -0.407544        -0.483371
 H         0.445281        -1.066081         2.179702
 H         1.110363        -2.273477         1.150568
 H         2.242755        -0.271305         3.001332
 H         2.602015        -2.030675         2.889735
 H         4.732976        -1.134514         1.852375
 H         4.310441         1.252649         0.562039
 H         4.547390        -1.203959        -0.698273
