19
Iteration:  1541charge 0 multiplicity 1
 C         0.087285        -0.037929        -0.332733
 C         1.473770        -0.180364         0.368141
 C         1.254803        -0.871826         1.803180
 C         2.597201        -1.438403         2.252755
 C         3.733591        -0.809883         1.447391
 C         3.601140         0.484184         0.759307
 O         2.302316         1.004925         0.670350
 C         3.616543        -0.886413         0.002391
 O         2.253713        -0.924819        -0.571811
 H        -0.602320         0.433563         0.417454
 H         0.303090         0.374639        -1.382107
 H        -0.269239        -1.032145        -0.597563
 H         1.063633         0.031385         2.341701
 H         0.429552        -1.608437         1.904808
 H         2.599790        -1.264989         3.420630
 H         2.641242        -2.575497         2.046973
 H         4.792032        -0.960762         1.736883
 H         4.341999         1.230582         0.712695
 H         4.489922        -1.068050        -0.699237
