19
Iteration:  1832
 C         0.091511         0.140640        -0.322545
 C         1.452724        -0.182917         0.433128
 C         1.197603        -0.902056         1.735932
 C         2.667672        -1.563747         2.146988
 C         3.791739        -0.697724         1.566804
 C         3.566346         0.561253         0.716747
 O         2.226866         1.003033         0.539506
 C         3.627692        -0.849703         0.001574
 O         2.298514        -1.150070        -0.390393
 H        -0.538381         0.820842         0.279631
 H         0.349220         0.917348        -1.168532
 H        -0.532662        -0.680684        -0.671479
 H         0.977265        -0.200408         2.470668
 H         0.474551        -1.662420         1.539619
 H         2.720545        -1.774981         3.251870
 H         2.874035        -2.514703         1.730838
 H         4.844200        -0.868380         1.972334
 H         4.346202         1.382928         0.568740
 H         4.392402        -1.189621        -0.614403
