19
Iteration:   427
 C         0.122037         0.169775        -0.262219
 C         1.488994        -0.225998         0.387914
 C         1.275028        -0.959569         1.761025
 C         2.572225        -1.580227         2.110244
 C         3.749683        -0.800322         1.446571
 C         3.486805         0.574284         0.810054
 O         2.152338         0.963591         0.538285
 C         3.756358        -0.659363        -0.060088
 O         2.351055        -1.112256        -0.365002
 H        -0.430840         0.615493         0.528521
 H         0.314800         0.834653        -1.103894
 H        -0.266557        -0.772609        -0.671217
 H         0.848376        -0.264829         2.512978
 H         0.495121        -1.731643         1.681163
 H         2.597844        -1.858000         3.135755
 H         2.657467        -2.595756         1.810662
 H         4.825939        -0.909122         2.001545
 H         4.092891         1.443161         0.958116
 H         4.455920        -0.658549        -0.863628
