19
Iteration:  1905
 C         0.157351         0.150425        -0.299961
 C         1.418247        -0.234032         0.373877
 C         1.295015        -1.164530         1.537068
 C         2.564238        -1.107765         2.430950
 C         3.815868        -0.877903         1.467969
 C         3.642009         0.440716         0.721807
 O         2.246988         0.922741         0.796188
 C         3.546514        -0.892911        -0.075915
 O         2.247063        -0.951822        -0.565413
 H        -0.454106         0.827122         0.277833
 H         0.428947         0.718090        -1.183556
 H        -0.452892        -0.698938        -0.516836
 H         0.484606        -0.806305         2.170061
 H         1.195234        -2.241857         1.154588
 H         2.425475        -0.185483         3.041480
 H         2.673472        -1.926793         3.152111
 H         4.868993        -1.161411         1.624532
 H         4.494329         1.218041         0.661595
 H         4.216834        -1.100036        -0.855077
