19
Iteration:  2743charge 0 multiplicity 1
 C         0.080871         0.144855        -0.282168
 C         1.487530        -0.176801         0.404973
 C         1.167481        -0.810418         1.699343
 C         2.667735        -1.521769         2.283661
 C         3.813787        -0.705112         1.564485
 C         3.611835         0.443717         0.671806
 O         2.260766         0.972973         0.477135
 C         3.645474        -0.879454        -0.002511
 O         2.243971        -1.112678        -0.390674
 H        -0.442377         1.048572         0.103191
 H         0.284775         0.480981        -1.340485
 H        -0.618998        -0.769271        -0.324412
 H         0.774674        -0.084323         2.460129
 H         0.446465        -1.608651         1.612480
 H         2.740498        -1.462234         3.410644
 H         2.756502        -2.607312         1.996469
 H         4.831541        -0.928650         1.794800
 H         4.181469         1.412478         0.551218
 H         4.334048        -1.240225        -0.636653
