19
Iteration:  3788charge 0 multiplicity 1
 C         0.098109         0.147923        -0.235676
 C         1.485078        -0.215446         0.356063
 C         1.209008        -0.911766         1.711371
 C         2.556706        -1.089988         2.450003
 C         3.781672        -0.870276         1.464681
 C         3.664988         0.325165         0.650659
 O         2.318552         0.929820         0.516720
 C         3.619190        -0.967259        -0.052062
 O         2.230373        -1.036445        -0.513892
 H        -0.108588         0.933041         0.460350
 H         0.095949         0.543928        -1.296896
 H        -0.616495        -0.640366        -0.106871
 H         0.586159        -0.123443         2.332384
 H         0.597298        -1.770371         1.588006
 H         2.665924        -0.472722         3.368471
 H         2.631097        -2.177512         2.745172
 H         4.751230        -1.094928         1.903531
 H         4.473035         0.993068         0.587675
 H         4.226089        -1.560884        -0.691864
