19
Iteration:  4036
 C         0.071577         0.034777        -0.291559
 C         1.492042        -0.218190         0.371041
 C         1.232936        -0.786907         1.787904
 C         2.543110        -1.065276         2.402450
 C         3.721186        -0.933634         1.470354
 C         3.709916         0.306384         0.596238
 O         2.397554         0.955428         0.566687
 C         3.574270        -0.945763        -0.025414
 O         2.190868        -1.031491        -0.514647
 H        -0.471548         0.639340         0.393951
 H         0.141371         0.653156        -1.262440
 H        -0.276994        -0.941652        -0.550976
 H         0.819623        -0.044352         2.492109
 H         0.503015        -1.545486         1.727172
 H         2.751530        -0.503632         3.362375
 H         2.381012        -2.093112         2.822888
 H         4.686910        -1.299965         1.806580
 H         4.624401         0.964365         0.482365
 H         4.346160        -1.362694        -0.759797
