19
Iteration:  4227
 C         0.276888         0.358069        -0.338378
 C         1.407694        -0.323692         0.386650
 C         1.285031        -0.915491         1.745775
 C         2.668782        -1.105615         2.552379
 C         3.688359        -0.827720         1.481467
 C         3.603653         0.396643         0.584880
 O         2.282194         0.861789         0.455476
 C         3.497236        -0.952853        -0.029182
 O         2.187370        -1.191555        -0.417948
 H        -0.276229         0.989935         0.342151
 H         0.768844         1.055698        -1.136812
 H        -0.392048        -0.277126        -0.913372
 H         0.648670        -0.454656         2.451575
 H         0.829737        -1.889232         1.493800
 H         2.886735        -0.329398         3.334249
 H         2.643902        -2.185006         2.914747
 H         4.748339        -1.063327         1.667721
 H         4.258098         1.260869         0.387415
 H         4.291738        -1.450073        -0.661733
