19
Iteration:  3516charge 0 multiplicity 1
 C         0.185613         0.292149        -0.306529
 C         1.478681        -0.212008         0.379866
 C         1.302717        -1.198350         1.696584
 C         2.634977        -1.010953         2.467096
 C         3.725654        -0.819594         1.479391
 C         3.599912         0.385123         0.597797
 O         2.309226         0.967745         0.554453
 C         3.476693        -0.963383        -0.002379
 O         2.194558        -1.109725        -0.459680
 H        -0.124531         1.018477         0.431815
 H         0.564958         0.761098        -1.188836
 H        -0.329584        -0.645283        -0.509004
 H         0.457732        -0.737992         2.192776
 H         1.069406        -2.288288         1.324781
 H         2.380717        -0.109507         3.007625
 H         2.783783        -1.809258         3.165203
 H         4.779794        -1.129419         1.714852
 H         4.499724         0.984056         0.393311
 H         4.061387        -1.503850        -0.706268
