19
Iteration:   323
 C         0.225122         0.279301        -0.229077
 C         1.449139        -0.295164         0.364645
 C         1.325704        -1.356325         1.574270
 C         2.606336        -1.306456         2.363908
 C         3.794478        -0.732452         1.562466
 C         3.595788         0.542578         0.624380
 O         2.173541         0.909608         0.716906
 C         3.529302        -0.851060         0.040394
 O         2.246739        -0.877143        -0.553286
 H        -0.323246         1.051678         0.307188
 H         0.338323         0.759047        -1.250127
 H        -0.590742        -0.405008        -0.495571
 H         0.413943        -1.200562         2.130112
 H         1.339490        -2.283465         1.004850
 H         2.528396        -0.674635         3.179623
 H         2.980372        -2.308672         2.590067
 H         4.728680        -0.980240         1.863992
 H         4.295284         1.321771         0.175000
 H         4.309139        -1.214310        -0.642564
