19
Iteration:   404charge 0 multiplicity 1
 C         0.092498         0.008182        -0.374893
 C         1.471135        -0.161898         0.376211
 C         1.319992        -0.931558         1.777141
 C         2.682311        -1.627092         2.083746
 C         3.772474        -0.759712         1.533670
 C         3.502882         0.548536         0.763177
 O         2.226515         1.080981         0.633413
 C         3.540349        -0.781783         0.049689
 O         2.295382        -0.982726        -0.448965
 H        -0.608596         0.362063         0.361302
 H         0.286698         0.709509        -1.158485
 H        -0.066935        -0.972196        -0.817039
 H         1.087579        -0.203357         2.552646
 H         0.451821        -1.575322         1.760030
 H         2.741946        -2.001645         3.060716
 H         2.854002        -2.588029         1.637294
 H         4.791106        -1.032316         2.047929
 H         4.243684         1.265117         0.731931
 H         4.343976        -1.112375        -0.545145
