19
Iteration:  2489charge 0 multiplicity 1
 C         0.238877         0.152684        -0.409416
 C         1.427017        -0.172198         0.435287
 C         1.292366        -0.800983         1.797943
 C         2.618137        -1.523333         2.215176
 C         3.815550        -0.827143         1.491125
 C         3.487439         0.513360         0.706085
 O         2.236200         1.010407         0.514267
 C         3.587105        -0.814523        -0.025793
 O         2.227847        -1.195519        -0.329352
 H        -0.621192         0.739326         0.007529
 H         0.424614         0.876877        -1.307094
 H        -0.158129        -0.837693        -0.591027
 H         1.071688         0.004425         2.576595
 H         0.428975        -1.528713         1.941417
 H         2.836791        -1.301493         3.255029
 H         2.730890        -2.666426         2.141195
 H         4.769163        -0.974818         1.944982
 H         4.326618         1.216112         0.424645
 H         4.223049        -0.956855        -0.789372
