19
Iteration:   226charge 0 multiplicity 1
 C         0.191002         0.158493        -0.395191
 C         1.369886        -0.213882         0.402304
 C         1.303080        -1.057025         1.736787
 C         2.711581        -1.519303         2.278633
 C         3.828298        -0.877505         1.440138
 C         3.527769         0.560809         0.788685
 O         2.149047         1.030602         0.575582
 C         3.568102        -0.791050        -0.004943
 O         2.288736        -0.976724        -0.410728
 H        -0.653563         0.639145         0.115080
 H         0.542783         1.007548        -1.088736
 H        -0.300298        -0.686433        -0.939736
 H         0.762967        -0.535956         2.527077
 H         0.604616        -1.923730         1.510329
 H         2.942548        -1.194075         3.323297
 H         2.803031        -2.623867         2.317680
 H         4.764273        -1.110526         1.824778
 H         4.296916         1.365156         0.705608
 H         4.290152        -0.974621        -0.802082
