19
Iteration:   691
 C         0.168455         0.133625        -0.270326
 C         1.486257        -0.335574         0.351577
 C         1.238942        -1.037738         1.690693
 C         2.639046        -1.490542         2.263800
 C         3.785859        -0.795880         1.482534
 C         3.464363         0.569636         0.777683
 O         2.145112         0.948718         0.679375
 C         3.613469        -0.733562         0.001790
 O         2.372138        -0.966327        -0.569942
 H        -0.459312         0.822500         0.348820
 H         0.439284         0.729742        -1.129133
 H        -0.556554        -0.617400        -0.503155
 H         0.877281        -0.249725         2.326695
 H         0.715228        -1.865148         1.472379
 H         2.695734        -1.040404         3.317563
 H         2.777752        -2.659229         2.309610
 H         4.746265        -0.961399         1.831555
 H         4.347641         1.234657         0.550986
 H         4.439953        -0.885208        -0.764069
