19
Iteration:  4038
 C         0.072607         0.049504        -0.306336
 C         1.484021        -0.228658         0.358964
 C         1.217446        -0.767310         1.786147
 C         2.564185        -1.088569         2.425648
 C         3.718098        -0.924823         1.478879
 C         3.719012         0.299935         0.599682
 O         2.391442         0.949378         0.573541
 C         3.574288        -0.956288        -0.046427
 O         2.196120        -1.030826        -0.513762
 H        -0.549522         0.621709         0.433851
 H         0.133268         0.633682        -1.257981
 H        -0.289653        -0.972391        -0.553923
 H         0.806577         0.020892         2.493980
 H         0.489762        -1.508496         1.734177
 H         2.794188        -0.475317         3.375806
 H         2.441122        -2.117818         2.794268
 H         4.693004        -1.270236         1.800582
 H         4.600053         1.012534         0.473095
 H         4.345258        -1.302538        -0.730194
