19
Iteration:  1463charge 0 multiplicity 1
 C         0.238042         0.344004        -0.323151
 C         1.443049        -0.330586         0.369606
 C         1.268885        -1.223596         1.644731
 C         2.647587        -1.211124         2.338519
 C         3.822403        -0.727617         1.603885
 C         3.539499         0.519898         0.580826
 O         2.238355         0.886194         0.776128
 C         3.501120        -0.858457        -0.037391
 O         2.214338        -1.076732        -0.547546
 H        -0.258272         0.947230         0.501029
 H         0.673201         0.947208        -1.111905
 H        -0.565457        -0.399942        -0.611196
 H         0.366441        -0.965389         2.217432
 H         1.083387        -2.180887         1.237619
 H         2.522356        -0.384013         3.123350
 H         2.976067        -2.206106         2.731330
 H         4.785836        -0.915152         1.856052
 H         4.324519         1.174313         0.144684
 H         4.374991        -1.177586        -0.779851
