19
Iteration:  2953
 C         0.178152         0.136117        -0.340775
 C         1.438690        -0.283530         0.419793
 C         1.295443        -0.742521         1.933120
 C         2.576766        -1.494380         2.219603
 C         3.688509        -0.786076         1.489645
 C         3.551302         0.512695         0.661281
 O         2.227560         0.933287         0.445250
 C         3.648625        -0.858019         0.017379
 O         2.300157        -1.095942        -0.412790
 H        -0.319856         1.010325         0.135792
 H         0.468865         0.504508        -1.327437
 H        -0.445464        -0.755946        -0.479855
 H         1.300552         0.111456         2.608125
 H         0.433718        -1.302509         1.954485
 H         2.765651        -1.593917         3.347698
 H         2.482093        -2.509463         1.859485
 H         4.737075        -0.793607         1.735693
 H         4.296630         1.332293         0.594444
 H         4.363136        -1.269587        -0.664278
