19
Iteration:  4874
 C         0.155183         0.232744        -0.305760
 C         1.407237        -0.139989         0.376668
 C         1.263572        -0.884402         1.749783
 C         2.623954        -1.217390         2.510257
 C         3.796534        -0.871071         1.488587
 C         3.630316         0.357739         0.620599
 O         2.309974         0.991612         0.480830
 C         3.579949        -1.027734        -0.070295
 O         2.195218        -1.125179        -0.458732
 H        -0.274230         1.169725         0.138574
 H         0.314347         0.418353        -1.392870
 H        -0.629599        -0.551757        -0.370106
 H         0.624123        -0.418168         2.509117
 H         0.756057        -1.911729         1.545644
 H         2.821560        -0.525958         3.318013
 H         2.466657        -2.199272         2.893826
 H         4.804985        -0.985054         1.897989
 H         4.255732         1.209817         0.572392
 H         4.355857        -1.524362        -0.824018
