19
Iteration:  1400charge 0 multiplicity 1
 C         0.109660        -0.000860        -0.262264
 C         1.518902        -0.185970         0.368325
 C         1.296766        -0.950179         1.663838
 C         2.596323        -1.350989         2.393274
 C         3.739783        -0.804421         1.474497
 C         3.621320         0.422727         0.697212
 O         2.315356         0.968600         0.692286
 C         3.519481        -0.873206        -0.015187
 O         2.250791        -0.871781        -0.618655
 H        -0.587828         0.689592         0.312211
 H         0.277390         0.298514        -1.316006
 H        -0.533861        -0.901610        -0.356024
 H         0.580986        -0.363230         2.235022
 H         0.824299        -2.006830         1.358114
 H         2.635118        -0.749133         3.278328
 H         2.672942        -2.386498         2.680319
 H         4.692272        -1.097633         1.835340
 H         4.319383         1.269354         0.726282
 H         4.296776        -1.430561        -0.685521
