19
Iteration:  3085charge 0 multiplicity 1
 C         0.193780         0.209744        -0.227052
 C         1.527822        -0.222631         0.405264
 C         1.294958        -1.018752         1.658241
 C         2.561102        -1.162714         2.441117
 C         3.701089        -0.762771         1.507747
 C         3.583374         0.458985         0.640147
 O         2.329536         0.900857         0.524311
 C         3.559868        -0.931057        -0.039129
 O         2.224592        -1.081628        -0.512147
 H        -0.320416         1.051422         0.328729
 H         0.174165         0.366597        -1.284569
 H        -0.519503        -0.663370        -0.060112
 H         0.403304        -0.716953         2.233844
 H         0.977356        -1.922092         1.221882
 H         2.565577        -0.540020         3.399208
 H         2.699884        -2.193600         2.746090
 H         4.694900        -1.168254         1.733202
 H         4.271942         1.335516         0.655362
 H         4.185590        -1.559110        -0.723971
