19
Iteration:  2633
 C         0.201586         0.232269        -0.243870
 C         1.464185        -0.297114         0.329972
 C         1.186424        -0.993147         1.718759
 C         2.653485        -1.183156         2.415055
 C         3.747034        -0.903409         1.483590
 C         3.533964         0.425997         0.689020
 O         2.287516         0.912614         0.534518
 C         3.610634        -0.858147        -0.091598
 O         2.260343        -1.071302        -0.471266
 H        -0.444577         0.597843         0.635477
 H         0.460308         1.087003        -0.858908
 H        -0.530014        -0.557827        -0.693498
 H         0.301697        -0.395720         2.140107
 H         0.682533        -1.949978         1.505666
 H         2.787902        -0.602846         3.321797
 H         2.783075        -2.216592         2.805335
 H         4.765560        -0.682684         1.762647
 H         4.329654         1.116032         0.787637
 H         4.390300        -0.997861        -0.949818
