19
Iteration:  1121
 C         0.143131         0.232088        -0.338133
 C         1.424686        -0.293094         0.400231
 C         1.244409        -0.996708         1.736616
 C         2.631946        -1.517012         2.197622
 C         3.803207        -0.714177         1.478995
 C         3.510978         0.556752         0.729661
 O         2.161366         0.942157         0.621839
 C         3.656846        -0.824842        -0.012746
 O         2.333602        -1.064890        -0.420153
 H        -0.516916         0.787563         0.380267
 H         0.577382         0.812452        -1.177710
 H        -0.348767        -0.608067        -0.825394
 H         0.987719        -0.008291         2.386975
 H         0.494862        -1.774687         1.879064
 H         2.872814        -1.426647         3.229668
 H         2.657317        -2.548486         2.036546
 H         4.774331        -0.815530         1.864694
 H         4.282496         1.285473         0.489009
 H         4.371573        -1.112048        -0.709002
