19
Iteration:  2295
 C         0.069009         0.167013        -0.216565
 C         1.453798        -0.241326         0.321945
 C         1.228946        -0.922160         1.753030
 C         2.574746        -1.355633         2.327016
 C         3.735655        -0.804198         1.513620
 C         3.605466         0.441334         0.701674
 O         2.272087         0.947914         0.517828
 C         3.673637        -0.843252        -0.039532
 O         2.336676        -1.068703        -0.504249
 H        -0.469049         0.810264         0.482221
 H         0.005907         0.852804        -1.138192
 H        -0.560717        -0.576070        -0.644734
 H         0.706291        -0.129669         2.386302
 H         0.599562        -1.826809         1.858400
 H         2.706777        -1.130088         3.406930
 H         2.596976        -2.374958         2.153556
 H         4.750841        -1.068735         1.844680
 H         4.359646         1.238635         0.684268
 H         4.531402        -1.219848        -0.506572
