19
Iteration:  4419charge 0 multiplicity 1
 C         0.179569         0.130289        -0.283216
 C         1.484911        -0.203865         0.364249
 C         1.312427        -0.675828         1.834429
 C         2.565441        -1.239400         2.284564
 C         3.697896        -0.851757         1.497433
 C         3.626271         0.430954         0.661102
 O         2.307457         0.904287         0.490056
 C         3.551517        -0.987643        -0.036897
 O         2.225404        -1.178702        -0.425271
 H        -0.454911         0.675161         0.418726
 H         0.312716         0.776989        -1.200126
 H        -0.319247        -0.793628        -0.597148
 H         0.941188         0.300315         2.284462
 H         0.448003        -1.305726         1.805082
 H         2.853691        -0.919424         3.328679
 H         2.463836        -2.338019         2.281203
 H         4.657307        -1.085680         1.948887
 H         4.329162         1.252034         0.531366
 H         4.285820        -1.466103        -0.616107
