19
Iteration:  3133charge 0 multiplicity 1
 C         0.195782         0.053123        -0.327883
 C         1.440457        -0.218272         0.372514
 C         1.263962        -0.727261         1.795941
 C         2.571567        -1.369734         2.311783
 C         3.732228        -0.810639         1.466005
 C         3.623584         0.457422         0.653142
 O         2.258556         0.923568         0.563535
 C         3.616384        -0.844652        -0.008202
 O         2.248430        -1.129471        -0.441299
 H        -0.263773         0.906053         0.166877
 H         0.334781         0.345479        -1.429494
 H        -0.523394        -0.756185        -0.283274
 H         1.075680         0.177613         2.323193
 H         0.302353        -1.312183         2.008643
 H         2.867687        -1.265312         3.388355
 H         2.547136        -2.475425         2.122720
 H         4.751852        -0.844647         1.862710
 H         4.354652         1.264531         0.614889
 H         4.172328        -1.283650        -0.806043
