19
Iteration:    94charge 0 multiplicity 1
 C         0.210496         0.320400        -0.267832
 C         1.443644        -0.228429         0.332506
 C         1.185904        -1.192075         1.577245
 C         2.651871        -1.211835         2.293305
 C         3.875429        -0.789428         1.408282
 C         3.525273         0.531669         0.749919
 O         2.147511         0.884989         0.775070
 C         3.563351        -0.852193        -0.014830
 O         2.289035        -1.133765        -0.499898
 H         0.047992         0.925830         0.647682
 H         0.589277         0.941393        -1.203087
 H        -0.457794        -0.592008        -0.538367
 H         0.460362        -0.820188         2.308006
 H         0.958512        -2.175596         1.126085
 H         2.706129        -0.595430         3.234039
 H         2.829302        -2.293331         2.524461
 H         4.919542        -0.920237         1.907251
 H         4.185520         1.310530         0.492488
 H         4.355525        -0.798394        -0.756651
