19
Iteration:   846
 C         0.178403         0.057580        -0.480826
 C         1.424154        -0.223090         0.411584
 C         1.268652        -0.947891         1.777056
 C         2.689826        -1.427760         2.187223
 C         3.815915        -0.933140         1.449657
 C         3.512213         0.490460         0.857713
 O         2.111199         0.980906         0.725488
 C         3.623330        -0.671704        -0.113992
 O         2.304533        -0.980014        -0.458450
 H        -0.385180         0.834304         0.050490
 H         0.574532         0.409385        -1.491894
 H        -0.338961        -0.957014        -0.563740
 H         0.931631        -0.226828         2.569217
 H         0.541123        -1.649535         1.911080
 H         2.956063        -1.188108         3.269617
 H         2.568558        -2.601762         2.165117
 H         4.891609        -1.142484         1.608778
 H         4.210944         1.246987         1.084499
 H         4.300907        -0.921212        -0.849176
