19
Iteration:   689charge 0 multiplicity 1
 C         0.174223         0.137449        -0.257551
 C         1.485672        -0.355871         0.357338
 C         1.243717        -1.032120         1.691629
 C         2.632558        -1.490709         2.241675
 C         3.768304        -0.765536         1.511949
 C         3.466699         0.567967         0.761168
 O         2.148516         0.960367         0.682871
 C         3.628083        -0.733162        -0.001394
 O         2.380509        -0.977059        -0.579259
 H        -0.454248         0.825186         0.336218
 H         0.376870         0.768764        -1.126406
 H        -0.558928        -0.622861        -0.464039
 H         0.880451        -0.324966         2.358186
 H         0.618634        -1.832658         1.476158
 H         2.685560        -1.163850         3.318276
 H         2.779071        -2.602781         2.232988
 H         4.809756        -0.975913         1.884603
 H         4.303693         1.159783         0.525422
 H         4.361366        -0.951970        -0.771904
