19
Iteration:   733
 C         0.201940         0.047137        -0.406210
 C         1.418250        -0.223888         0.424024
 C         1.272068        -1.197208         1.570400
 C         2.623435        -1.238861         2.371583
 C         3.775711        -0.891386         1.410073
 C         3.591592         0.509589         0.719541
 O         2.253358         0.949444         0.899027
 C         3.568392        -0.780627        -0.019124
 O         2.237508        -0.875877        -0.563514
 H        -0.624421         0.624010         0.097655
 H         0.423341         0.778723        -1.178888
 H        -0.234121        -0.889267        -0.703941
 H         0.479855        -0.935083         2.256289
 H         0.929573        -2.121937         1.130818
 H         2.673087        -0.485892         3.157796
 H         2.777464        -2.223114         2.867577
 H         4.803181        -1.121947         1.674961
 H         4.265363         1.371751         0.469699
 H         4.293385        -0.920755        -0.888873
