19
Iteration:  1929
 C         0.171066         0.282640        -0.187877
 C         1.413387        -0.225146         0.348208
 C         1.258282        -1.299497         1.609575
 C         2.540344        -1.166900         2.381584
 C         3.675393        -0.805841         1.453306
 C         3.593314         0.483328         0.703778
 O         2.282679         0.900796         0.632629
 C         3.612831        -0.829661        -0.033191
 O         2.317885        -1.055731        -0.523628
 H        -0.292131         0.953843         0.553320
 H         0.452837         1.045472        -1.030503
 H        -0.597636        -0.417334        -0.423872
 H         0.391823        -1.169677         2.165744
 H         1.378518        -2.271246         1.007341
 H         2.495499        -0.246647         3.088815
 H         2.890744        -1.972569         2.993929
 H         4.748391        -0.975105         1.827822
 H         4.395713         1.273611         0.561891
 H         4.407258        -1.068791        -0.709814
