19
Iteration:  2578
 C         0.155660         0.163377        -0.306640
 C         1.438306        -0.236932         0.454484
 C         1.329839        -1.143463         1.658353
 C         2.601351        -1.082777         2.454169
 C         3.772620        -0.843803         1.554778
 C         3.683566         0.370321         0.639214
 O         2.298807         0.940545         0.703083
 C         3.545517        -0.892282        -0.104308
 O         2.143012        -0.972818        -0.595679
 H        -0.198007         1.162802         0.069226
 H         0.438277         0.435092        -1.339485
 H        -0.425861        -0.820517        -0.388237
 H         0.400495        -0.621315         2.153327
 H         1.006040        -2.081339         1.154935
 H         2.281081        -0.235693         3.074093
 H         2.762599        -1.919800         3.145543
 H         4.742377        -1.310244         1.769462
 H         4.389958         1.125101         0.459674
 H         4.268994        -1.284590        -0.928288
