19
Iteration:  2597charge 0 multiplicity 1
 C         0.159455         0.220950        -0.303360
 C         1.415853        -0.203946         0.355737
 C         1.239006        -1.158181         1.617732
 C         2.636374        -1.041045         2.458194
 C         3.761571        -0.797959         1.421128
 C         3.604026         0.387031         0.598482
 O         2.330904         0.915991         0.759366
 C         3.501979        -0.955548         0.019681
 O         2.242321        -1.024606        -0.547765
 H        -0.241054         1.020424         0.420088
 H         0.376299         0.756891        -1.327904
 H        -0.413955        -0.688181        -0.581585
 H         0.378272        -0.909888         2.175840
 H         1.296113        -2.192897         1.321383
 H         2.705880        -0.307453         3.224815
 H         2.766591        -2.109323         2.883043
 H         4.730381        -1.029287         1.833199
 H         4.333701         1.175959         0.414540
 H         4.133480        -1.447435        -0.672953
