19
Iteration:  1709
 C         0.177609         0.375340        -0.204596
 C         1.413052        -0.303437         0.381312
 C         1.325673        -1.234824         1.570126
 C         2.573518        -1.155690         2.344589
 C         3.781440        -0.952092         1.487205
 C         3.549905         0.548244         0.638312
 O         2.171440         0.934691         0.621369
 C         3.602850        -0.829459         0.011336
 O         2.295038        -1.115349        -0.495718
 H        -0.258494         1.008375         0.625571
 H         0.575745         0.943099        -1.030509
 H        -0.581522        -0.312758        -0.755006
 H         0.625405        -0.984540         2.278415
 H         1.197054        -2.286739         1.206630
 H         2.716468        -0.321716         3.076544
 H         2.820689        -1.925854         3.017758
 H         4.708610        -1.113415         1.952753
 H         4.183598         1.398518         0.762988
 H         4.512075        -0.954242        -0.803552
