19
Iteration:  2200charge 0 multiplicity 1
 C         0.086019         0.132027        -0.274531
 C         1.424337        -0.176235         0.347711
 C         1.287830        -0.958010         1.731481
 C         2.609549        -1.400109         2.340208
 C         3.736992        -0.884002         1.509165
 C         3.578306         0.454469         0.746798
 O         2.271745         1.016309         0.501417
 C         3.675115        -0.804494        -0.023120
 O         2.287756        -1.050262        -0.519257
 H        -0.339692         0.762278         0.521416
 H        -0.036028         0.648342        -1.219820
 H        -0.485482        -0.756904        -0.390816
 H         0.781747        -0.303873         2.422288
 H         0.576796        -1.715527         1.563464
 H         2.605393        -0.886747         3.256596
 H         2.644657        -2.543218         2.574447
 H         4.769722        -1.060022         1.823479
 H         4.369466         1.224484         0.898830
 H         4.445094        -1.240641        -0.621202
