19
Iteration:  2944charge 0 multiplicity 1
 C         0.212919         0.104157        -0.415677
 C         1.458945        -0.195738         0.449872
 C         1.294244        -0.710129         1.977996
 C         2.605864        -1.508017         2.181870
 C         3.783851        -0.771265         1.521683
 C         3.522811         0.487208         0.653060
 O         2.230020         0.930714         0.477701
 C         3.542823        -0.822567         0.041910
 O         2.269565        -1.138619        -0.447395
 H        -0.266176         0.952303         0.104688
 H         0.563473         0.304176        -1.353085
 H        -0.526389        -0.718272        -0.430551
 H         1.001886         0.156616         2.532225
 H         0.436354        -1.414780         2.076831
 H         2.836900        -1.742905         3.272426
 H         2.538675        -2.385365         1.629977
 H         4.749017        -1.005681         1.910317
 H         4.372387         1.206324         0.533881
 H         4.298854        -1.084611        -0.605513
