19
Iteration:  3475
 C         0.170121         0.176124        -0.285673
 C         1.432706        -0.290268         0.345170
 C         1.254518        -0.993370         1.677117
 C         2.623948        -1.038540         2.457997
 C         3.773488        -0.945841         1.501512
 C         3.644840         0.419725         0.592179
 O         2.300243         0.916117         0.635642
 C         3.493028        -0.948853        -0.019846
 O         2.234100        -1.056476        -0.566381
 H        -0.075922         1.144353         0.219560
 H         0.107161         0.457236        -1.454911
 H        -0.690948        -0.566105        -0.122727
 H         0.740629        -0.309751         2.285747
 H         0.580261        -1.944573         1.652124
 H         2.772670        -0.122692         3.113240
 H         2.864906        -1.973328         3.047822
 H         4.815655        -1.020996         1.930728
 H         4.377147         1.342093         0.664919
 H         4.304969        -1.371701        -0.588480
