19
Iteration:  4182
 C         0.106616         0.136882        -0.364228
 C         1.497264        -0.182444         0.349398
 C         1.265017        -0.811859         1.763859
 C         2.539217        -1.149963         2.424278
 C         3.826149        -0.883893         1.453902
 C         3.691801         0.384833         0.580808
 O         2.356404         0.925890         0.585336
 C         3.506171        -0.924653        -0.035684
 O         2.166274        -1.132352        -0.380137
 H        -0.344046         1.036795         0.122381
 H         0.322260         0.341697        -1.436559
 H        -0.439440        -0.832147        -0.324315
 H         0.558091        -0.083099         2.247349
 H         0.680827        -1.683271         1.615684
 H         2.669571        -0.506508         3.372722
 H         2.650862        -2.245896         2.488787
 H         4.818878        -1.218572         1.820768
 H         4.402635         1.217757         0.497424
 H         4.190338        -1.606149        -0.668609
