19
Iteration:  2146charge 0 multiplicity 1
 C         0.200656         0.321981        -0.316199
 C         1.415767        -0.246156         0.409094
 C         1.253364        -1.211358         1.628703
 C         2.592636        -1.065174         2.392331
 C         3.810310        -0.836621         1.389623
 C         3.578298         0.433597         0.721353
 O         2.255094         0.822058         0.746772
 C         3.583948        -0.851737        -0.063845
 O         2.250322        -1.060619        -0.505650
 H        -0.398107         0.988324         0.261811
 H         0.521458         0.788782        -1.238329
 H        -0.542852        -0.370652        -0.543514
 H         0.311237        -0.981731         2.133685
 H         1.144590        -2.250888         1.236698
 H         2.495764        -0.205095         2.989436
 H         2.703566        -1.944034         3.106476
 H         4.858565        -1.055733         1.666452
 H         4.317633         1.206703         0.574457
 H         4.339419        -0.955125        -0.887412
