19
Iteration:  2549charge 0 multiplicity 1
 C         0.102953         0.190606        -0.272114
 C         1.481300        -0.283266         0.330395
 C         1.309167        -0.955411         1.686786
 C         2.621849        -1.188774         2.418763
 C         3.731106        -0.928445         1.437651
 C         3.556694         0.411801         0.704763
 O         2.234667         0.952048         0.653036
 C         3.678153        -0.887374        -0.060219
 O         2.257745        -1.026962        -0.552208
 H        -0.042953         1.001231         0.401259
 H         0.070546         0.383732        -1.302334
 H        -0.735948        -0.524878        -0.117214
 H         0.499898        -0.383674         2.241461
 H         0.993383        -1.981030         1.409944
 H         2.655816        -0.294199         3.202569
 H         2.597922        -2.126280         2.910757
 H         4.764106        -1.053686         1.903338
 H         4.289725         1.221606         0.773216
 H         4.314170        -1.410755        -0.908781
