19
Iteration:  4168charge 0 multiplicity 1
 C         0.193615         0.068469        -0.340603
 C         1.424503        -0.182587         0.395506
 C         1.225068        -0.751927         1.785216
 C         2.655631        -1.215581         2.442757
 C         3.718965        -0.915489         1.492577
 C         3.613683         0.376162         0.673570
 O         2.332865         0.996121         0.510811
 C         3.567413        -1.005857        -0.060158
 O         2.201778        -1.083830        -0.532400
 H        -0.349521         0.947214         0.089165
 H         0.368323         0.199086        -1.361300
 H        -0.536099        -0.742015        -0.115873
 H         0.904632         0.128178         2.469421
 H         0.486775        -1.529993         1.846622
 H         2.824492        -0.552952         3.387963
 H         2.537505        -2.188368         2.899838
 H         4.723822        -1.146085         1.818920
 H         4.518290         0.987773         0.536375
 H         4.239324        -1.235109        -0.815835
