19
Iteration:  2382
 C         0.246534         0.299197        -0.302316
 C         1.462765        -0.314689         0.323138
 C         1.244372        -1.083314         1.682252
 C         2.617087        -1.115967         2.409545
 C         3.766565        -0.757957         1.431212
 C         3.578440         0.494726         0.660878
 O         2.241041         0.839773         0.782139
 C         3.580969        -0.900025        -0.052798
 O         2.169457        -1.136536        -0.573445
 H         0.035085         1.100708         0.426930
 H         0.734662         0.646417        -1.271086
 H        -0.608373        -0.331226        -0.491422
 H         0.326629        -0.597186         2.189142
 H         1.015787        -2.126788         1.260885
 H         2.742473        -0.464184         3.440676
 H         2.792922        -2.136227         2.689345
 H         4.773619        -0.902611         1.726269
 H         4.366461         1.327426         0.536174
 H         4.342840        -1.294684        -0.583412
