19
Iteration:  2863
 C         0.098509         0.269920        -0.217870
 C         1.480198        -0.244640         0.264391
 C         1.290873        -1.050927         1.661105
 C         2.614478        -1.187103         2.509604
 C         3.767632        -0.828396         1.467802
 C         3.615053         0.432492         0.646688
 O         2.228162         0.940419         0.540496
 C         3.601064        -0.934093         0.049334
 O         2.275427        -1.060142        -0.574620
 H        -0.378552         0.837777         0.594581
 H        -0.042627         1.015899        -1.099343
 H        -0.542290        -0.618822        -0.431612
 H         0.591606        -0.464781         2.272495
 H         0.858823        -1.974032         1.440416
 H         2.569694        -0.538758         3.396792
 H         2.924319        -2.195965         2.923699
 H         4.756283        -1.203485         1.814526
 H         4.397757         1.168440         0.615819
 H         4.254085        -1.652069        -0.480034
