19
Iteration:  2801
 C         0.126321         0.245332        -0.387290
 C         1.402300        -0.329212         0.319153
 C         1.338446        -1.059861         1.753575
 C         2.679202        -1.029761         2.457044
 C         3.780692        -0.897911         1.524139
 C         3.584938         0.378083         0.629501
 O         2.292242         0.856779         0.758333
 C         3.547613        -0.885777        -0.070866
 O         2.160779        -0.983940        -0.602017
 H        -0.567143         0.740472         0.219827
 H         0.610829         0.823590        -1.194612
 H        -0.358536        -0.591183        -0.823287
 H         0.445114        -0.542831         2.233607
 H         0.966016        -2.164633         1.559164
 H         2.715033        -0.181030         3.236860
 H         2.729251        -1.911667         2.997926
 H         4.829199        -1.175237         1.924881
 H         4.365557         1.065619         0.383842
 H         4.555327        -1.137565        -0.657276
