19
Iteration:  3256charge 0 multiplicity 1
 C         0.205269         0.189291        -0.340269
 C         1.505943        -0.138948         0.366444
 C         1.342908        -1.076147         1.695946
 C         2.600511        -1.048784         2.485584
 C         3.753843        -0.906765         1.463254
 C         3.661434         0.407393         0.603891
 O         2.294277         0.935346         0.634743
 C         3.499323        -0.940450        -0.034969
 O         2.133355        -1.068139        -0.489397
 H        -0.417186         0.992591         0.175036
 H         0.199420         0.430059        -1.369052
 H        -0.377188        -0.776623        -0.305121
 H         0.414151        -0.837112         2.238652
 H         1.077893        -2.022927         1.166070
 H         2.552147        -0.189144         3.194463
 H         2.606465        -1.967477         3.186332
 H         4.760114        -0.992344         1.865756
 H         4.381515         1.211997         0.396698
 H         4.188909        -1.605035        -0.668037
