19
Iteration:   642charge 0 multiplicity 1
 C         0.168418         0.034754        -0.349817
 C         1.418591        -0.165148         0.394146
 C         1.285891        -0.979038         1.740102
 C         2.634097        -1.617318         2.132691
 C         3.815363        -0.878271         1.505924
 C         3.464457         0.523316         0.773741
 O         2.130511         1.129694         0.557411
 C         3.659316        -0.676724        -0.026262
 O         2.346271        -1.049420        -0.371386
 H        -0.456437         0.753579         0.209772
 H         0.415838         0.719651        -1.200729
 H        -0.533754        -0.839920        -0.464700
 H         1.046010        -0.217741         2.505014
 H         0.635012        -1.940755         1.780322
 H         2.715503        -1.679650         3.211037
 H         2.632951        -2.637137         1.835937
 H         4.821167        -0.993589         2.079319
 H         4.280354         1.275983         0.824697
 H         4.516233        -0.670771        -0.719129
