19
Iteration:   355
 C         0.148128         0.133889        -0.315929
 C         1.469240        -0.246106         0.335002
 C         1.283101        -1.005636         1.669773
 C         2.619908        -1.376208         2.264360
 C         3.819020        -0.895383         1.349548
 C         3.530858         0.512720         0.865604
 O         2.145267         0.950956         0.762837
 C         3.607176        -0.688296        -0.093234
 O         2.311727        -1.042082        -0.520352
 H        -0.401680         0.594581         0.516953
 H         0.317072         0.813195        -1.218125
 H        -0.243226        -0.856412        -0.603593
 H         0.569391        -0.434354         2.292212
 H         0.765725        -1.977989         1.471795
 H         2.900293        -0.835280         3.213607
 H         2.595608        -2.429105         2.667795
 H         4.716399        -1.150840         1.821371
 H         4.336268         1.309832         0.919348
 H         4.458187        -0.847938        -0.779237
