19
Iteration:   204charge 0 multiplicity 1
 C         0.168981         0.223485        -0.315377
 C         1.419814        -0.263939         0.342324
 C         1.284643        -0.901293         1.748869
 C         2.644108        -1.580190         2.131288
 C         3.789739        -0.677655         1.527332
 C         3.478532         0.537337         0.724037
 O         2.180860         0.934731         0.656613
 C         3.641293        -0.723616        -0.032846
 O         2.331845        -1.191495        -0.412438
 H        -0.613652         0.652210         0.327070
 H         0.406029         1.107261        -1.022738
 H        -0.356484        -0.608257        -0.882475
 H         0.975642        -0.112723         2.459926
 H         0.505363        -1.693211         1.723682
 H         2.791796        -1.677364         3.251714
 H         2.694857        -2.598380         1.691353
 H         4.745846        -0.779676         1.951210
 H         4.186314         1.332126         0.935698
 H         4.393642        -0.941824        -0.761944
