19
Iteration:  1086
 C         0.258417         0.134307        -0.445184
 C         1.432982        -0.201016         0.466214
 C         1.290973        -0.983684         1.757755
 C         2.702299        -1.460518         2.215456
 C         3.807485        -0.820538         1.459446
 C         3.528395         0.487965         0.766533
 O         2.157697         0.961881         0.715868
 C         3.538358        -0.740376        -0.081815
 O         2.238497        -1.073549        -0.424814
 H        -0.588582         0.818880        -0.159367
 H         0.712236         0.713053        -1.259079
 H        -0.136300        -0.828074        -0.795951
 H         0.823639        -0.139913         2.454385
 H         0.412382        -1.748687         1.729119
 H         2.741174        -1.233678         3.282874
 H         2.697932        -2.546785         2.036480
 H         4.846231        -0.777995         1.811510
 H         4.250813         1.358616         0.629488
 H         4.248746        -0.879170        -0.952353
