19
Iteration:  2643charge 0 multiplicity 1
 C         0.175295         0.208388        -0.267757
 C         1.478557        -0.246725         0.404167
 C         1.206381        -0.940903         1.727574
 C         2.623852        -1.250083         2.417501
 C         3.737009        -0.816166         1.424145
 C         3.600589         0.413902         0.676277
 O         2.220860         0.950062         0.547264
 C         3.588490        -0.885903        -0.043362
 O         2.297181        -1.088287        -0.503994
 H        -0.510027         0.565656         0.602897
 H         0.252249         0.978360        -1.055556
 H        -0.349902        -0.658109        -0.871342
 H         0.708985        -0.333132         2.501092
 H         0.733444        -1.883104         1.477830
 H         2.777739        -0.716809         3.338160
 H         2.775357        -2.365176         2.528441
 H         4.657425        -1.186908         1.875740
 H         4.326279         1.181156         0.643584
 H         4.474928        -1.215007        -0.715455
