19
Iteration:  1419
 C         0.111679         0.086208        -0.285467
 C         1.428226        -0.180956         0.338562
 C         1.288861        -1.087480         1.652201
 C         2.621040        -1.178013         2.462414
 C         3.764063        -1.002902         1.443713
 C         3.622234         0.400883         0.799841
 O         2.252854         0.990276         0.658753
 C         3.603046        -0.789692        -0.084639
 O         2.252409        -0.930769        -0.602865
 H        -0.420659         0.721358         0.448925
 H         0.276495         0.349044        -1.305525
 H        -0.511212        -0.870308        -0.143129
 H         0.568928        -0.596829         2.368645
 H         0.841832        -2.016564         1.275924
 H         2.706290        -0.278638         3.116082
 H         2.646387        -2.184710         2.823614
 H         4.737337        -1.226994         1.771759
 H         4.430746         1.157079         0.716720
 H         4.427883        -1.031297        -0.805880
