19
Iteration:  1667
 C         0.117344         0.099342        -0.303731
 C         1.452805        -0.258866         0.383926
 C         1.328419        -1.125154         1.617799
 C         2.602540        -1.125209         2.397573
 C         3.752428        -0.851342         1.469313
 C         3.628460         0.403078         0.684808
 O         2.272938         0.944658         0.778387
 C         3.553095        -0.861123        -0.002769
 O         2.244939        -0.892661        -0.656650
 H        -0.317291         0.808916         0.436423
 H         0.328263         0.646763        -1.205278
 H        -0.403677        -0.894199        -0.366398
 H         0.492570        -0.633955         2.262269
 H         0.964953        -2.128313         1.257267
 H         2.470360        -0.385053         3.216942
 H         2.622938        -2.078806         2.882426
 H         4.658210        -1.267627         1.789382
 H         4.401862         1.127342         0.589528
 H         4.333974        -1.443129        -0.690882
