19
Iteration:  2619charge 0 multiplicity 1
 C         0.154481         0.291673        -0.234968
 C         1.431353        -0.274870         0.374857
 C         1.293961        -1.069296         1.654184
 C         2.558506        -1.160411         2.448169
 C         3.835280        -0.853625         1.462039
 C         3.602386         0.428433         0.690823
 O         2.245124         0.900492         0.586636
 C         3.600756        -0.841302        -0.068956
 O         2.235270        -1.123350        -0.538846
 H        -0.428672         0.863279         0.584649
 H         0.458166         1.004604        -1.083242
 H        -0.422598        -0.483842        -0.803578
 H         0.689246        -0.580440         2.369116
 H         0.934545        -2.064139         1.427894
 H         2.568967        -0.281936         3.046548
 H         2.526228        -2.096558         3.128719
 H         4.778012        -1.067011         1.957718
 H         4.261498         1.272332         0.585575
 H         4.285649        -1.309876        -0.812025
