19
Iteration:  1156charge 0 multiplicity 1
 C         0.081875         0.033393        -0.202913
 C         1.472750        -0.200979         0.319800
 C         1.283715        -0.999124         1.631870
 C         2.584446        -1.460741         2.372600
 C         3.731493        -0.850834         1.434465
 C         3.581927         0.505238         0.822470
 O         2.282826         1.090597         0.569765
 C         3.638137        -0.822277        -0.021605
 O         2.308111        -0.958902        -0.507128
 H        -0.673700         0.569632         0.364780
 H         0.042526         0.563856        -1.215504
 H        -0.333814        -1.012870        -0.301590
 H         0.536462        -0.399362         2.299596
 H         0.679921        -1.845723         1.296186
 H         2.581534        -0.906939         3.347220
 H         2.748927        -2.496631         2.333996
 H         4.803298        -1.140503         1.770545
 H         4.335005         1.255465         0.664542
 H         4.396160        -1.193845        -0.757991
