19
Iteration:  4279charge 0 multiplicity 1
 C         0.161670         0.058208        -0.298760
 C         1.488051        -0.144239         0.422565
 C         1.180143        -0.833376         1.740632
 C         2.518359        -0.993734         2.385446
 C         3.703430        -0.894663         1.425207
 C         3.804380         0.359684         0.603340
 O         2.434642         0.963270         0.604785
 C         3.486483        -0.992076        -0.018466
 O         2.169051        -1.112849        -0.487438
 H        -0.498928         0.724524         0.272667
 H         0.101577         0.283425        -1.360705
 H        -0.272714        -0.954596        -0.173393
 H         0.339274        -0.421779         2.498791
 H         0.872690        -1.814664         1.509603
 H         2.795263        -0.308996         3.252865
 H         2.397753        -2.020301         2.624964
 H         4.614970        -1.474489         1.665335
 H         4.624037         1.072713         0.450482
 H         4.319170        -1.459739        -0.654676
