19
Iteration:  4860charge 0 multiplicity 1
 C         0.145756         0.238466        -0.376547
 C         1.448024        -0.284799         0.388340
 C         1.245266        -0.881473         1.857903
 C         2.673340        -1.129991         2.472143
 C         3.688307        -0.929494         1.432071
 C         3.609244         0.385367         0.691181
 O         2.364257         0.950510         0.505497
 C         3.498919        -0.884171        -0.036084
 O         2.205605        -1.166299        -0.516955
 H        -0.223882         1.099436         0.142239
 H         0.491916         0.616961        -1.388391
 H        -0.569287        -0.574673        -0.391458
 H         0.539017        -0.071469         2.347808
 H         0.675392        -1.752244         1.761371
 H         2.848678        -0.498201         3.379336
 H         2.884390        -2.107493         2.745334
 H         4.742652        -1.220241         1.708835
 H         4.564058         0.917228         0.608578
 H         4.278269        -1.185291        -0.797500
