19
Iteration:  3358charge 0 multiplicity 1
 C         0.177041         0.008684        -0.295202
 C         1.449852        -0.144642         0.376617
 C         1.289689        -0.740303         1.815402
 C         2.636808        -1.339497         2.341713
 C         3.771027        -0.812760         1.530650
 C         3.587253         0.454260         0.709355
 O         2.340246         1.026604         0.473326
 C         3.552241        -0.994143        -0.031593
 O         2.168903        -1.104405        -0.489737
 H        -0.597664         0.441836         0.310496
 H         0.234337         0.644144        -1.236715
 H        -0.191618        -0.964558        -0.579841
 H         0.890718         0.141517         2.483574
 H         0.554895        -1.497144         1.638028
 H         2.790282        -1.074726         3.386068
 H         2.383981        -2.403442         2.215468
 H         4.703139        -1.018804         2.091571
 H         4.407482         1.210168         0.436499
 H         4.171714        -1.464539        -0.764104
