19
Iteration:  3519charge 0 multiplicity 1
 C         0.190029         0.292442        -0.290450
 C         1.472914        -0.241940         0.357403
 C         1.298225        -1.191407         1.699299
 C         2.619157        -1.030944         2.460658
 C         3.721059        -0.799941         1.476031
 C         3.592854         0.378935         0.626595
 O         2.307392         0.983787         0.551229
 C         3.489364        -0.984465        -0.012193
 O         2.192259        -1.099211        -0.453111
 H        -0.170819         1.006598         0.452986
 H         0.574040         0.843978        -1.267781
 H        -0.332225        -0.649994        -0.543909
 H         0.519183        -0.716773         2.265371
 H         1.010206        -2.283788         1.385849
 H         2.468858        -0.020007         2.950524
 H         2.824629        -1.819501         3.235951
 H         4.775650        -1.130888         1.609087
 H         4.543739         0.973575         0.312369
 H         4.241745        -1.485272        -0.693040
