19
Iteration:  2968
 C         0.108876         0.127439        -0.247896
 C         1.484728        -0.219868         0.351033
 C         1.303922        -0.802662         1.738756
 C         2.558050        -1.486883         2.314475
 C         3.742892        -0.812636         1.497847
 C         3.527582         0.484569         0.679219
 O         2.249771         1.030596         0.434951
 C         3.678732        -0.863517        -0.038626
 O         2.295836        -1.149938        -0.404828
 H        -0.309147         0.690249         0.589683
 H         0.279141         0.736928        -1.117191
 H        -0.511164        -0.750750        -0.484550
 H         1.097634         0.180260         2.169789
 H         0.287246        -1.369398         2.029172
 H         2.667168        -1.150103         3.338969
 H         2.685134        -2.566159         2.263496
 H         4.628795        -0.893211         2.124548
 H         4.302175         1.243307         0.879064
 H         4.346178        -1.385820        -0.737711
