19
Iteration:  1608
 C         0.224745         0.219886        -0.343987
 C         1.442414        -0.262559         0.397296
 C         1.249651        -0.932016         1.724071
 C         2.591022        -1.461207         2.267474
 C         3.844524        -0.711502         1.537390
 C         3.544572         0.562398         0.626712
 O         2.184941         0.892408         0.650231
 C         3.608571        -0.843812         0.027632
 O         2.241852        -1.108178        -0.470341
 H        -0.416568         0.839932         0.309394
 H         0.346311         0.693153        -1.394741
 H        -0.437273        -0.668849        -0.460461
 H         0.935772        -0.213713         2.389317
 H         0.411486        -1.650491         1.637583
 H         2.867555        -1.398257         3.329870
 H         2.804117        -2.464846         1.820705
 H         4.958130        -0.880825         1.819562
 H         4.317334         1.351223         0.509523
 H         4.372128        -1.066198        -0.589038
