19
Iteration:   623
 C         0.203623         0.041902        -0.419424
 C         1.416611        -0.267488         0.392004
 C         1.310095        -0.876066         1.824512
 C         2.648237        -1.602724         2.215566
 C         3.712861        -0.812558         1.424341
 C         3.489462         0.564233         0.848691
 O         2.187219         0.949588         0.692155
 C         3.606048        -0.691934        -0.076534
 O         2.307890        -0.954807        -0.517251
 H        -0.556922         0.584385         0.150429
 H         0.622706         0.527949        -1.337813
 H        -0.164652        -1.002979        -0.503274
 H         1.178423        -0.050373         2.448921
 H         0.548396        -1.563648         1.729343
 H         2.827572        -1.454814         3.313553
 H         2.726635        -2.725533         1.905260
 H         4.823295        -0.986855         1.810678
 H         4.045546         1.467770         0.939996
 H         4.436381        -1.025162        -0.679357
