19
Iteration:  2209
 C         0.052065         0.075753        -0.292196
 C         1.507763        -0.227551         0.355674
 C         1.244384        -0.840429         1.744278
 C         2.588937        -1.449945         2.309275
 C         3.766491        -0.917546         1.442063
 C         3.572378         0.514124         0.754636
 O         2.262719         1.055888         0.580479
 C         3.624877        -0.838263        -0.019364
 O         2.298368        -1.078480        -0.491053
 H        -0.482818         0.840901         0.324766
 H         0.411225         0.627510        -1.250984
 H        -0.425130        -0.879480        -0.449115
 H         0.755558        -0.032835         2.315586
 H         0.628552        -1.663613         1.633408
 H         2.816413        -0.993195         3.285392
 H         2.514178        -2.595203         2.485872
 H         4.859696        -1.006131         1.762513
 H         4.294659         1.298670         0.783386
 H         4.425724        -1.082735        -0.771642
