19
Iteration:  4465charge 0 multiplicity 1
 C         0.223718         0.279338        -0.384947
 C         1.432524        -0.183007         0.435682
 C         1.245694        -0.888622         1.784562
 C         2.678494        -1.259066         2.367345
 C         3.717371        -0.747260         1.547306
 C         3.591502         0.389807         0.575419
 O         2.332808         0.928758         0.441760
 C         3.520402        -1.027953         0.010995
 O         2.144037        -1.149830        -0.350432
 H        -0.314481         1.046216         0.108618
 H         0.777838         0.687972        -1.275178
 H        -0.323208        -0.611553        -0.638373
 H         0.725934        -0.185583         2.612723
 H         0.743826        -1.797214         1.631974
 H         2.819217        -0.904588         3.449374
 H         2.666830        -2.320175         2.390929
 H         4.788170        -0.841301         1.554341
 H         4.414638         1.118268         0.425785
 H         4.207216        -1.472011        -0.671654
