19
Iteration:  3550charge 0 multiplicity 1
 C         0.135415         0.218107        -0.249374
 C         1.474758        -0.210398         0.311216
 C         1.267101        -0.915202         1.687508
 C         2.580013        -1.050393         2.465128
 C         3.773264        -0.809596         1.518242
 C         3.641379         0.315732         0.613286
 O         2.257177         0.829398         0.624967
 C         3.536156        -0.898875        -0.117873
 O         2.267607        -1.117660        -0.489557
 H        -0.600375         0.659089         0.409724
 H         0.246199         0.934189        -1.136739
 H        -0.341576        -0.687029        -0.662368
 H         0.636576        -0.235031         2.221911
 H         0.644937        -1.924645         1.735517
 H         2.777899        -0.459656         3.332707
 H         2.704557        -2.062985         2.826342
 H         4.824705        -1.189516         1.551530
 H         4.477741         1.118608         0.488953
 H         4.393644        -1.392871        -0.589075
