19
Iteration:  3306charge 0 multiplicity 1
 C         0.198048         0.295168        -0.266550
 C         1.430731        -0.268058         0.358511
 C         1.309768        -0.987313         1.659960
 C         2.679156        -1.064291         2.443714
 C         3.762286        -0.798990         1.480763
 C         3.543951         0.375573         0.618169
 O         2.234124         0.847722         0.631946
 C         3.556455        -0.921997        -0.071363
 O         2.241456        -1.193043        -0.471014
 H        -0.115676         1.243080         0.149275
 H         0.401864         0.512057        -1.344058
 H        -0.623978        -0.364471        -0.428953
 H         0.652642        -0.285581         2.254455
 H         0.700647        -1.888090         1.409786
 H         2.654541        -0.263182         3.197990
 H         2.564414        -2.005440         2.907173
 H         4.770631        -1.111845         1.759716
 H         4.347260         1.211134         0.719716
 H         4.331370        -1.152046        -0.792977
