19
Iteration:  4592
 C         0.225527         0.301959        -0.294001
 C         1.478820        -0.252920         0.354592
 C         1.209282        -0.841279         1.752790
 C         2.555873        -0.985820         2.375407
 C         3.782978        -0.937030         1.432439
 C         3.547865         0.404205         0.536584
 O         2.288665         0.863669         0.680837
 C         3.572362        -1.023713        -0.098005
 O         2.257850        -1.193581        -0.419240
 H        -0.198024         0.914036         0.485370
 H         0.558681         0.885969        -1.227971
 H        -0.445529        -0.493513        -0.581522
 H         0.431542        -0.341884         2.228947
 H         0.729733        -1.930229         1.668200
 H         2.758015        -0.249425         3.074231
 H         2.687398        -1.939975         2.927021
 H         4.759562        -1.266878         1.769632
 H         4.305947         1.209718         0.519866
 H         4.253646        -1.557515        -0.682472
