19
Iteration:  2263charge 0 multiplicity 1
 C         0.256260         0.143776        -0.464876
 C         1.462333        -0.191376         0.432637
 C         1.315374        -0.825211         1.823105
 C         2.639827        -1.521922         2.193788
 C         3.784911        -0.835739         1.500561
 C         3.492254         0.468136         0.665307
 O         2.171121         1.064212         0.550703
 C         3.569144        -0.803101        -0.025522
 O         2.224629        -1.146115        -0.282358
 H        -0.461038         0.633426         0.224035
 H         0.741854         0.811338        -1.286373
 H        -0.315740        -0.726858        -0.798542
 H         1.065286         0.005356         2.529094
 H         0.618268        -1.619721         1.946326
 H         2.786355        -1.706263         3.263587
 H         2.571953        -2.536269         1.823702
 H         4.843413        -0.970071         1.778974
 H         4.263715         1.221534         0.499254
 H         4.363664        -1.068249        -0.682744
