19
Iteration:  4304
 C         0.156263         0.222761        -0.369741
 C         1.500875        -0.229150         0.400898
 C         1.296110        -0.862351         1.759702
 C         2.628306        -1.156235         2.503088
 C         3.781115        -0.887441         1.509871
 C         3.573837         0.338233         0.581918
 O         2.311190         0.947120         0.485594
 C         3.536640        -1.030744        -0.005688
 O         2.173280        -1.088312        -0.451830
 H        -0.297594         1.084917         0.119648
 H         0.409605         0.569978        -1.463046
 H        -0.600772        -0.548230        -0.470411
 H         0.720053        -0.139485         2.324389
 H         0.655694        -1.775671         1.736853
 H         2.859521        -0.334671         3.232375
 H         2.432747        -2.170415         2.961896
 H         4.815597        -1.015766         1.746810
 H         4.405867         1.036795         0.526515
 H         4.228231        -1.251522        -0.733314
