19
Iteration:  3384
 C         0.117347         0.123038        -0.374371
 C         1.386337        -0.213581         0.430446
 C         1.308200        -0.657355         1.851939
 C         2.576214        -1.412499         2.309439
 C         3.765580        -0.843414         1.477187
 C         3.609306         0.490442         0.659208
 O         2.250928         0.908951         0.489367
 C         3.630324        -0.857154        -0.102669
 O         2.317711        -1.208908        -0.361843
 H        -0.677632         0.594990         0.315555
 H         0.497305         0.846160        -1.062145
 H        -0.475818        -0.706279        -0.828196
 H         1.298431         0.324783         2.343166
 H         0.303837        -1.209069         2.055852
 H         2.709185        -1.217110         3.391669
 H         2.284193        -2.438813         2.234365
 H         4.690971        -0.938990         2.035054
 H         4.304689         1.266248         0.431508
 H         4.309130        -1.339054        -0.887782
