19
Iteration:  1155charge 0 multiplicity 1
 C         0.086402         0.035622        -0.202001
 C         1.473201        -0.199940         0.322186
 C         1.283845        -0.995320         1.627596
 C         2.579150        -1.466125         2.369676
 C         3.741949        -0.851479         1.430638
 C         3.581426         0.510957         0.826253
 O         2.281416         1.092643         0.564251
 C         3.636530        -0.815314        -0.023341
 O         2.306457        -0.972841        -0.503810
 H        -0.663457         0.589147         0.376738
 H         0.018360         0.562812        -1.206602
 H        -0.309299        -1.002683        -0.317503
 H         0.496570        -0.406703         2.291050
 H         0.679765        -1.848121         1.319768
 H         2.632796        -0.951792         3.361943
 H         2.714052        -2.490880         2.355422
 H         4.785028        -1.113595         1.770877
 H         4.342162         1.255688         0.698083
 H         4.371737        -1.175544        -0.745460
