19
Iteration:  2434charge 0 multiplicity 1
 C         0.128161         0.021089        -0.273340
 C         1.468327        -0.124564         0.388786
 C         1.299738        -0.827339         1.727095
 C         2.569559        -1.406928         2.340950
 C         3.735727        -0.870925         1.528944
 C         3.619126         0.504835         0.692511
 O         2.307934         1.034545         0.533915
 C         3.529226        -0.865935        -0.054705
 O         2.274339        -1.071028        -0.470867
 H        -0.500830         0.464887         0.526755
 H         0.087635         0.638382        -1.277296
 H        -0.143072        -0.964449        -0.621235
 H         0.763964        -0.022556         2.356715
 H         0.526263        -1.671586         1.584948
 H         2.740344        -1.311924         3.431331
 H         2.547297        -2.539767         2.078178
 H         4.761909        -1.167618         1.704031
 H         4.481257         1.206573         0.707896
 H         4.280791        -1.257074        -0.619270
