19
Iteration:  3007
 C         0.140734         0.116353        -0.322724
 C         1.466807        -0.226538         0.399317
 C         1.210204        -1.022695         1.718088
 C         2.624072        -1.204903         2.417397
 C         3.749364        -0.806451         1.496219
 C         3.673672         0.403200         0.571813
 O         2.323939         0.981865         0.594855
 C         3.557693        -0.940083        -0.024980
 O         2.216643        -1.002506        -0.491543
 H        -0.687427         0.410407         0.391835
 H         0.258650         0.925456        -1.044943
 H        -0.322748        -0.757175        -0.854427
 H         0.671856        -0.415476         2.480373
 H         0.656017        -1.850371         1.407493
 H         2.614786        -0.466981         3.304362
 H         2.742169        -2.232183         2.828217
 H         4.776355        -0.829665         1.796866
 H         4.472050         1.178949         0.707874
 H         4.159539        -1.512703        -0.651373
