19
Iteration:  3958charge 0 multiplicity 1
 C         0.245157         0.360593        -0.342829
 C         1.434347        -0.256622         0.420503
 C         1.202096        -0.956685         1.745817
 C         2.595286        -1.020049         2.420055
 C         3.767360        -0.825320         1.454122
 C         3.624666         0.341278         0.531472
 O         2.315203         0.872862         0.697028
 C         3.555443        -0.935746        -0.135639
 O         2.200950        -1.258582        -0.422703
 H        -0.239532         1.207853         0.142273
 H         0.540798         0.583542        -1.451924
 H        -0.529273        -0.394885        -0.568974
 H         0.538521        -0.458792         2.402423
 H         0.801479        -1.935889         1.384711
 H         2.742425        -0.173894         3.177439
 H         2.597489        -2.012433         3.027638
 H         4.716657        -0.951026         2.020685
 H         4.309262         1.148170         0.292582
 H         4.229629        -1.397525        -0.849137
