19
Iteration:  4628
 C         0.187048         0.148805        -0.433944
 C         1.466920        -0.151845         0.380745
 C         1.317437        -0.864727         1.804005
 C         2.674457        -1.169335         2.550269
 C         3.719060        -0.912426         1.516549
 C         3.611212         0.340966         0.597470
 O         2.406414         1.005278         0.510342
 C         3.454848        -0.959497        -0.010062
 O         2.127061        -1.057360        -0.462249
 H        -0.585034         0.800672         0.085464
 H         0.289848         0.591962        -1.415733
 H        -0.372535        -0.816944        -0.562698
 H         0.553446        -0.380004         2.475945
 H         1.038094        -1.789457         1.384219
 H         2.686537        -0.720976         3.589373
 H         2.569980        -2.209778         2.658427
 H         4.691234        -1.410703         1.662966
 H         4.374312         1.104071         0.409300
 H         4.107634        -1.566708        -0.830688
