19
Iteration:  1913charge 0 multiplicity 1
 C         0.145797         0.253625        -0.295203
 C         1.491986        -0.224211         0.414987
 C         1.289280        -1.256804         1.550848
 C         2.573478        -1.074980         2.388767
 C         3.795481        -0.907906         1.469490
 C         3.612668         0.473745         0.704632
 O         2.238316         0.987822         0.758861
 C         3.570363        -0.865433        -0.074018
 O         2.250250        -1.024225        -0.566701
 H        -0.457483         0.754367         0.461477
 H         0.304329         0.658264        -1.232622
 H        -0.379240        -0.729521        -0.445382
 H         0.380260        -1.163634         2.299187
 H         1.077095        -2.282253         1.227476
 H         2.337474        -0.188732         2.904662
 H         2.699889        -1.977262         3.050843
 H         4.750897        -1.219734         1.807823
 H         4.392122         1.219430         0.751504
 H         4.388233        -1.313671        -0.729459
