19
Iteration:   294charge 0 multiplicity 1
 C         0.096026         0.282930        -0.166227
 C         1.494658        -0.277462         0.356008
 C         1.372891        -1.308066         1.542756
 C         2.564384        -1.147234         2.415151
 C         3.726007        -0.844425         1.475915
 C         3.591929         0.423805         0.806123
 O         2.192224         0.883249         0.734004
 C         3.592931        -0.776938        -0.124604
 O         2.315802        -0.968079        -0.645854
 H        -0.386760         1.133666         0.410418
 H         0.215617         0.664939        -1.151388
 H        -0.659551        -0.489685        -0.218310
 H         0.402711        -1.154169         1.986557
 H         1.356603        -2.322035         1.120451
 H         2.437570        -0.198163         3.076704
 H         2.797237        -1.983028         3.051423
 H         4.785943        -1.038831         1.783655
 H         4.316172         1.316544         0.923480
 H         4.398475        -0.861978        -0.971725
