19
Iteration:  2211
 C         0.072252         0.071156        -0.300498
 C         1.513678        -0.236900         0.356911
 C         1.236999        -0.812752         1.739838
 C         2.588166        -1.441574         2.310392
 C         3.776662        -0.918686         1.425068
 C         3.565110         0.515852         0.754954
 O         2.259135         1.051699         0.600632
 C         3.610609        -0.843981        -0.026244
 O         2.303922        -1.078507        -0.480590
 H        -0.560962         0.779756         0.262971
 H         0.450021         0.533944        -1.196394
 H        -0.444247        -0.845360        -0.456992
 H         0.799767        -0.026105         2.309967
 H         0.605310        -1.641083         1.643292
 H         2.857257        -1.101544         3.273622
 H         2.510425        -2.613557         2.432953
 H         4.794983        -1.014527         1.793379
 H         4.339489         1.342680         0.739903
 H         4.336337        -1.035639        -0.765010
