19
Iteration:  4635
 C         0.182647         0.155069        -0.385912
 C         1.420614        -0.117552         0.400831
 C         1.326967        -0.818164         1.752174
 C         2.668129        -1.210338         2.553469
 C         3.711138        -0.930869         1.495704
 C         3.640346         0.354202         0.554780
 O         2.350191         1.034188         0.481646
 C         3.507005        -1.004135         0.026292
 O         2.127514        -1.068755        -0.493549
 H        -0.479765         0.708579         0.237183
 H         0.483393         0.502674        -1.423825
 H        -0.308811        -0.800964        -0.447667
 H         0.639839        -0.464238         2.468958
 H         0.776967        -1.845939         1.442923
 H         2.856716        -0.731274         3.469542
 H         2.492425        -2.331043         2.714117
 H         4.752561        -1.124199         1.774034
 H         4.490950         1.018399         0.762186
 H         4.226309        -1.563454        -0.496866
