19
Iteration:  1570charge 0 multiplicity 1
 C         0.196731         0.173771        -0.355575
 C         1.463382        -0.153803         0.414099
 C         1.279781        -0.893938         1.818498
 C         2.637244        -1.577933         2.170538
 C         3.804308        -0.813380         1.459540
 C         3.499044         0.533006         0.727711
 O         2.187772         0.987986         0.495521
 C         3.631305        -0.732722         0.008325
 O         2.270823        -1.164477        -0.348419
 H        -0.406419         0.797057         0.315345
 H         0.406127         0.711300        -1.235228
 H        -0.284103        -0.778838        -0.633718
 H         1.017812        -0.054166         2.590322
 H         0.505824        -1.627554         1.739742
 H         2.511087        -1.580076         3.237441
 H         2.516465        -2.655624         2.057601
 H         4.798521        -0.912426         1.741440
 H         4.068836         1.450603         0.797823
 H         4.444985        -1.001417        -0.796650
