19
Iteration:  2300
 C         0.061306         0.164526        -0.222451
 C         1.461789        -0.264512         0.269225
 C         1.229707        -0.926925         1.790006
 C         2.563760        -1.315979         2.340447
 C         3.760315        -0.808738         1.541820
 C         3.614481         0.430516         0.642661
 O         2.265401         0.955847         0.552629
 C         3.632119        -0.856001         0.006706
 O         2.364782        -1.021490        -0.550067
 H        -0.383671         0.771238         0.595574
 H         0.082187         0.856604        -1.024180
 H        -0.569917        -0.760085        -0.460137
 H         0.651782        -0.255012         2.364847
 H         0.606375        -1.819932         1.602774
 H         2.617221        -1.068834         3.401011
 H         2.575250        -2.501293         2.291816
 H         4.721534        -1.159780         1.899176
 H         4.394141         1.215804         0.623604
 H         4.404596        -1.353428        -0.678845
