19
Iteration:  4619
 C         0.150130         0.159128        -0.431682
 C         1.466971        -0.148318         0.372652
 C         1.287075        -0.909496         1.805408
 C         2.611587        -1.147665         2.485771
 C         3.770209        -0.871862         1.505815
 C         3.681842         0.370531         0.650797
 O         2.396055         0.951212         0.555743
 C         3.413870        -0.995093        -0.072630
 O         2.134515        -1.057317        -0.436408
 H        -0.516016         0.914215         0.078703
 H         0.481209         0.611112        -1.344048
 H        -0.315925        -0.821168        -0.707992
 H         0.459499        -0.322947         2.350478
 H         0.850704        -1.836891         1.643505
 H         2.789000        -0.469209         3.492279
 H         2.820456        -2.149936         2.863170
 H         4.760374        -1.326066         1.702700
 H         4.455297         0.931176         0.155394
 H         4.202493        -1.371911        -0.849120
