19
Iteration:  4169charge 0 multiplicity 1
 C         0.195630         0.072101        -0.341335
 C         1.429443        -0.187283         0.388557
 C         1.221259        -0.759318         1.779909
 C         2.647246        -1.208465         2.440564
 C         3.729016        -0.914988         1.495565
 C         3.624387         0.375625         0.668117
 O         2.335034         0.997137         0.516442
 C         3.560948        -1.003414        -0.061973
 O         2.195532        -1.086422        -0.522170
 H        -0.375893         0.947957         0.083072
 H         0.339321         0.201429        -1.364778
 H        -0.541569        -0.746197        -0.125959
 H         0.918803         0.106241         2.479107
 H         0.500598        -1.513750         1.813765
 H         2.836450        -0.565294         3.412222
 H         2.542567        -2.184422         2.908019
 H         4.733209        -1.162769         1.837468
 H         4.479213         1.051074         0.537229
 H         4.241711        -1.254251        -0.844718
