19
Iteration:  3023
 C         0.246919         0.183956        -0.393365
 C         1.429271        -0.275774         0.396778
 C         1.273303        -1.070126         1.764542
 C         2.610482        -1.094137         2.472477
 C         3.750808        -0.883596         1.421321
 C         3.552690         0.448265         0.621555
 O         2.310975         0.993677         0.710690
 C         3.520037        -0.921575        -0.079395
 O         2.189059        -1.081284        -0.510532
 H        -0.456982         0.657161         0.252578
 H         0.598751         1.019244        -1.032818
 H        -0.006017        -0.732748        -0.899907
 H         0.484441        -0.518182         2.231493
 H         0.964448        -2.173785         1.508932
 H         2.704489        -0.225119         3.146883
 H         2.808937        -1.927522         3.149419
 H         4.743416        -1.264542         1.755746
 H         4.314399         1.051039         0.214380
 H         4.294140        -1.184142        -0.887376
