19
Iteration:  3202
 C         0.161886         0.161555        -0.312146
 C         1.510405        -0.250946         0.388582
 C         1.258674        -0.786005         1.812107
 C         2.603252        -1.262320         2.380383
 C         3.740636        -0.845488         1.491990
 C         3.574225         0.455854         0.589796
 O         2.273507         0.970938         0.537873
 C         3.539766        -0.923878        -0.025023
 O         2.291084        -1.179223        -0.473820
 H        -0.616355         0.454821         0.458912
 H         0.373064         0.939620        -1.004107
 H        -0.293672        -0.678552        -0.896201
 H         0.643666         0.056999         2.403744
 H         0.394945        -1.490581         1.681347
 H         2.701910        -1.107297         3.444810
 H         2.641945        -2.416998         2.363769
 H         4.729183        -1.089100         1.897594
 H         4.363665         1.262663         0.461507
 H         4.423381        -1.242155        -0.662685
