19
Iteration:  2438
 C         0.143901        -0.009086        -0.296740
 C         1.505626        -0.111495         0.389474
 C         1.290861        -0.806782         1.748533
 C         2.546151        -1.431734         2.312072
 C         3.732351        -0.862916         1.517742
 C         3.635608         0.482767         0.653237
 O         2.287049         1.024251         0.563464
 C         3.535526        -0.845797        -0.014578
 O         2.255304        -1.066199        -0.488829
 H        -0.514749         0.467903         0.438947
 H         0.082284         0.661512        -1.132405
 H        -0.197825        -0.999912        -0.633979
 H         0.902699        -0.009305         2.454880
 H         0.468907        -1.550808         1.708323
 H         2.689121        -1.315612         3.477638
 H         2.630618        -2.465470         2.132904
 H         4.755009        -1.118925         1.753734
 H         4.498133         1.172075         0.639085
 H         4.386483        -1.197821        -0.668365
