19
Iteration:  1825
 C         0.111040         0.147277        -0.306964
 C         1.330744        -0.235272         0.416549
 C         1.274403        -0.904564         1.761370
 C         2.660208        -1.619599         2.125240
 C         3.723232        -0.672724         1.548313
 C         3.531839         0.559430         0.655223
 O         2.288251         1.028491         0.564205
 C         3.717851        -0.786874         0.073294
 O         2.303179        -1.157424        -0.402868
 H        -0.494707         0.790146         0.347293
 H         0.355475         0.738030        -1.133208
 H        -0.535205        -0.593492        -0.794380
 H         1.015157         0.026808         2.524054
 H         0.331055        -1.511484         1.660401
 H         2.602369        -1.803272         3.173062
 H         2.780628        -2.666126         1.644673
 H         4.693938        -0.640966         2.024690
 H         4.314768         1.226491         0.447672
 H         4.343235        -1.408235        -0.662241
