19
Iteration:  4511
 C         0.079440         0.149405        -0.324159
 C         1.459682        -0.212424         0.403211
 C         1.173476        -0.782042         1.744651
 C         2.584588        -1.054580         2.396291
 C         3.786794        -0.937655         1.422873
 C         3.690785         0.343406         0.684774
 O         2.351100         0.866621         0.573981
 C         3.582541        -1.015545        -0.084770
 O         2.216840        -1.054945        -0.484965
 H        -0.321658         1.044031         0.206256
 H         0.240249         0.319511        -1.330217
 H        -0.538322        -0.736938        -0.084050
 H         0.645372         0.056598         2.403704
 H         0.600782        -1.719736         1.616771
 H         2.735909        -0.304151         3.178889
 H         2.789322        -2.022590         2.836462
 H         4.707522        -1.133873         2.010503
 H         4.502406         1.045834         0.784309
 H         4.322806        -1.482519        -0.883318
