19
Iteration:   943charge 0 multiplicity 1
 C         0.177789         0.110013        -0.374733
 C         1.435763        -0.333646         0.362270
 C         1.318174        -1.020899         1.705681
 C         2.685862        -1.378166         2.371919
 C         3.725334        -0.843327         1.501886
 C         3.506215         0.418261         0.773424
 O         2.193247         0.935293         0.711356
 C         3.567500        -0.739415        -0.096614
 O         2.293929        -0.866534        -0.593781
 H        -0.490033         0.637327         0.305839
 H         0.510306         0.909820        -1.076827
 H        -0.246549        -0.848383        -0.792766
 H         0.607255        -0.404278         2.351925
 H         0.659944        -1.935763         1.689702
 H         2.763375        -0.862612         3.310587
 H         2.986264        -2.371170         2.534787
 H         4.836544        -0.953697         1.677361
 H         4.238449         1.130841         0.957720
 H         4.393829        -1.007055        -0.683798
