19
Iteration:  3942
 C         0.136677         0.181553        -0.403397
 C         1.402359        -0.141881         0.421991
 C         1.202240        -0.903335         1.721671
 C         2.598498        -1.064414         2.385424
 C         3.833966        -0.938167         1.409834
 C         3.696476         0.385684         0.623778
 O         2.361355         0.961139         0.618087
 C         3.510202        -1.014003        -0.033258
 O         2.176174        -1.151506        -0.389645
 H        -0.321220         1.037923         0.148963
 H         0.493672         0.671430        -1.258780
 H        -0.451956        -0.743307        -0.417641
 H         0.378858        -0.395061         2.332407
 H         0.785085        -1.934387         1.645579
 H         2.637921        -0.377205         3.204663
 H         2.782589        -1.996222         2.876046
 H         4.827311        -1.306156         1.630861
 H         4.451279         1.221299         0.513348
 H         4.308163        -1.256926        -0.757174
