19
Iteration:  2401
 C         0.154723         0.288353        -0.278925
 C         1.408243        -0.229721         0.392520
 C         1.267911        -1.089604         1.696058
 C         2.629787        -1.283847         2.393045
 C         3.772724        -0.811898         1.518110
 C         3.596442         0.432036         0.609343
 O         2.236188         0.939836         0.558754
 C         3.570113        -0.862299        -0.031787
 O         2.319433        -1.081451        -0.496696
 H        -0.313866         0.907486         0.517363
 H         0.453973         0.857798        -1.230028
 H        -0.574750        -0.517689        -0.355554
 H         0.628821        -0.399057         2.329526
 H         0.662878        -2.013376         1.385611
 H         2.572979        -0.641176         3.328509
 H         2.606067        -2.345575         2.801956
 H         4.740317        -1.088851         1.963997
 H         4.262989         1.268945         0.475698
 H         4.332457        -1.137214        -0.711128
