19
Iteration:  4847
 C         0.268536         0.189518        -0.348449
 C         1.458769        -0.276237         0.355816
 C         1.265670        -0.820344         1.799482
 C         2.596796        -1.134801         2.438180
 C         3.764426        -0.895983         1.436290
 C         3.651971         0.411054         0.630674
 O         2.272283         0.858092         0.624140
 C         3.524370        -0.937696        -0.080228
 O         2.150311        -1.105492        -0.498908
 H        -0.247793         0.928037         0.248926
 H         0.549859         0.588766        -1.323024
 H        -0.470323        -0.572939        -0.571233
 H         0.916042         0.063593         2.420636
 H         0.565940        -1.602227         1.896884
 H         2.788143        -0.384133         3.235120
 H         2.528870        -2.118099         2.956686
 H         4.739931        -1.332195         1.674657
 H         4.320088         1.282915         0.406827
 H         4.236511        -1.385394        -0.648700
