19
Iteration:  3635
 C         0.137506         0.172349        -0.304274
 C         1.480956        -0.235724         0.342651
 C         1.229575        -0.657668         1.885050
 C         2.548144        -1.439429         2.215050
 C         3.814445        -0.767203         1.464902
 C         3.590125         0.481333         0.607544
 O         2.220649         0.875693         0.490199
 C         3.659470        -0.939069         0.050731
 O         2.291762        -1.176806        -0.369003
 H        -0.238376         1.010979         0.256744
 H         0.283140         0.542073        -1.333588
 H        -0.640965        -0.605396        -0.341018
 H         1.152199         0.201723         2.531305
 H         0.365107        -1.283314         1.990278
 H         2.715963        -1.448601         3.323619
 H         2.331728        -2.463237         1.864387
 H         4.801593        -0.797210         2.042024
 H         4.181683         1.471464         0.404374
 H         4.387397        -1.249832        -0.733442
