19
Iteration:  3887
 C         0.126227         0.184789        -0.222026
 C         1.449677        -0.238494         0.322774
 C         1.246157        -0.678739         1.806335
 C         2.537945        -1.345876         2.303037
 C         3.709646        -0.847882         1.466212
 C         3.639411         0.378759         0.659630
 O         2.321774         0.915690         0.433591
 C         3.642300        -0.909994         0.014537
 O         2.238703        -1.140675        -0.425760
 H        -0.429306         0.578135         0.634447
 H         0.263595         0.838796        -1.067722
 H        -0.351415        -0.734029        -0.625309
 H         1.079572         0.373644         2.269128
 H         0.525272        -1.468957         2.049056
 H         2.660882        -0.902902         3.283499
 H         2.631376        -2.443239         2.315796
 H         4.688028        -0.915839         1.904371
 H         4.349287         1.211784         0.479684
 H         4.456374        -1.508902        -0.497481
