19
Iteration:  2670
 C         0.120690         0.046383        -0.413740
 C         1.444665        -0.213368         0.360381
 C         1.240697        -0.805805         1.733050
 C         2.677522        -1.423606         2.334024
 C         3.824265        -0.792706         1.498128
 C         3.593851         0.414566         0.633560
 O         2.320023         1.031134         0.640196
 C         3.538985        -0.881672         0.018216
 O         2.176025        -1.031673        -0.421120
 H        -0.575769         0.555203         0.173091
 H         0.229158         0.656820        -1.318922
 H        -0.167629        -0.904424        -0.660504
 H         0.942027        -0.044352         2.465769
 H         0.469879        -1.621586         1.638661
 H         2.757411        -1.304088         3.454327
 H         2.690175        -2.465845         2.125736
 H         4.826064        -0.953140         1.944717
 H         4.459996         1.112500         0.518725
 H         4.200806        -1.196733        -0.722409
