19
Iteration:  3862
 C         0.183613         0.265622        -0.386554
 C         1.436887        -0.138712         0.361453
 C         1.230379        -0.713104         1.879793
 C         2.622138        -1.455840         2.281143
 C         3.817620        -0.786076         1.518536
 C         3.621014         0.414936         0.620364
 O         2.250585         1.028665         0.424591
 C         3.539141        -0.922755         0.006621
 O         2.229574        -1.306844        -0.285289
 H        -0.392497         0.802539         0.320938
 H         0.335779         0.755354        -1.389148
 H        -0.304196        -0.667042        -0.593427
 H         0.878449         0.137286         2.547351
 H         0.604330        -1.558427         1.884661
 H         2.752506        -1.472943         3.356896
 H         2.680390        -2.402064         1.874373
 H         4.822403        -1.026858         1.909119
 H         4.371389         1.113926         0.321691
 H         4.215212        -1.256826        -0.749953
