19
Iteration:  3610charge 0 multiplicity 1
 C         0.199224         0.121437        -0.353607
 C         1.433990        -0.266001         0.372979
 C         1.280171        -0.728817         1.844275
 C         2.634704        -1.455728         2.263638
 C         3.773052        -0.775372         1.484488
 C         3.608586         0.433560         0.658110
 O         2.291260         1.058465         0.467385
 C         3.541003        -0.849998         0.021153
 O         2.181897        -1.213772        -0.363911
 H        -0.489124         0.887210         0.094705
 H         0.471796         0.443203        -1.315992
 H        -0.407276        -0.771385        -0.597000
 H         1.240560         0.190361         2.512250
 H         0.494646        -1.374763         1.976069
 H         2.669868        -1.309132         3.366090
 H         2.441814        -2.519087         2.034592
 H         4.768884        -0.827740         1.875880
 H         4.345261         1.165270         0.622696
 H         4.300926        -1.205018        -0.633417
