19
Iteration:  2847
 C         0.091275         0.231304        -0.180249
 C         1.426319        -0.222668         0.413524
 C         1.247798        -1.102486         1.619541
 C         2.561164        -1.070073         2.413894
 C         3.760263        -0.833874         1.540573
 C         3.658888         0.395416         0.646277
 O         2.348295         0.949696         0.542887
 C         3.577831        -0.940927        -0.033277
 O         2.265540        -1.084359        -0.554978
 H        -0.526273         0.627696         0.655143
 H         0.399189         0.939040        -0.866096
 H        -0.539074        -0.552158        -0.604500
 H         0.348356        -0.969292         2.259108
 H         1.092625        -2.192449         1.196198
 H         2.556125        -0.247636         3.146832
 H         2.587412        -2.013608         2.967993
 H         4.755278        -1.026248         1.915029
 H         4.381619         1.192312         0.405395
 H         4.303000        -1.139630        -0.844923
