19
Iteration:    41charge 0 multiplicity 1
 C         0.147372         0.047861        -0.205230
 C         1.498089        -0.245521         0.392279
 C         1.310186        -1.085877         1.563710
 C         2.599947        -1.187396         2.344912
 C         3.729899        -0.924530         1.445461
 C         3.574946         0.441599         0.715642
 O         2.249896         0.937311         0.788128
 C         3.554566        -0.853289        -0.082728
 O         2.268924        -0.818763        -0.630416
 H        -0.528783         0.395930         0.544914
 H         0.291566         0.862763        -0.965095
 H        -0.166345        -0.976410        -0.442846
 H         0.498671        -0.655583         2.155179
 H         0.909996        -2.069413         1.189030
 H         2.625250        -0.395097         3.163619
 H         2.699189        -2.059863         2.971850
 H         4.791135        -1.230842         1.834310
 H         4.336719         1.195925         0.740788
 H         4.319129        -1.324683        -0.722761
