19
Iteration:  3924charge 0 multiplicity 1
 C         0.170745         0.107026        -0.326254
 C         1.471790        -0.147722         0.360811
 C         1.312103        -0.806244         1.752227
 C         2.640427        -1.210236         2.444408
 C         3.698705        -0.905607         1.508563
 C         3.628856         0.354018         0.654053
 O         2.352513         0.972134         0.517584
 C         3.527152        -0.987291        -0.035977
 O         2.148200        -1.001767        -0.487169
 H        -0.658856         0.653635         0.199970
 H         0.281316         0.551538        -1.354566
 H        -0.148687        -0.958387        -0.440028
 H         0.744552        -0.232140         2.419160
 H         0.611725        -1.692693         1.544049
 H         2.834468        -0.505547         3.301953
 H         2.601032        -2.282780         2.913086
 H         4.734938        -1.111847         1.862094
 H         4.591240         0.809198         0.500518
 H         4.057870        -1.651567        -0.646603
