19
Iteration:  4365
 C         0.190073         0.131401        -0.346228
 C         1.452489        -0.137854         0.427053
 C         1.205698        -0.759992         1.781039
 C         2.618524        -1.243849         2.297584
 C         3.813199        -0.868604         1.466262
 C         3.637295         0.406020         0.643672
 O         2.313687         1.012747         0.475183
 C         3.516001        -1.015919         0.005113
 O         2.174719        -1.179412        -0.334660
 H        -0.394106         0.905665         0.170020
 H         0.507586         0.427608        -1.339431
 H        -0.309112        -0.842379        -0.347085
 H         0.723540         0.168445         2.335904
 H         0.577133        -1.513571         1.396155
 H         2.825800        -0.915237         3.347317
 H         2.478673        -2.312508         2.408888
 H         4.881046        -1.102266         1.612433
 H         4.394640         1.171150         0.486479
 H         4.356372        -1.510451        -0.525801
