19
Iteration:  1714
 C         0.129620         0.364366        -0.244449
 C         1.454432        -0.335500         0.370887
 C         1.295262        -1.217364         1.578797
 C         2.587595        -1.180432         2.383235
 C         3.812638        -0.931964         1.419099
 C         3.500414         0.521578         0.674779
 O         2.196329         0.957516         0.623698
 C         3.619377        -0.822209         0.028748
 O         2.300924        -1.099859        -0.488239
 H        -0.208654         1.027499         0.524982
 H         0.659007         1.059305        -0.971325
 H        -0.478580        -0.411900        -0.611904
 H         0.358118        -0.891878         2.332809
 H         1.143692        -2.200298         1.149195
 H         2.768299        -0.325596         3.036975
 H         2.824389        -2.082315         3.057190
 H         4.833275        -1.051096         1.896627
 H         4.194130         1.389648         0.708611
 H         4.211877        -1.079694        -0.742415
