19
Iteration:  2228
 C         0.235862         0.011053        -0.439708
 C         1.422921        -0.182654         0.426766
 C         1.272041        -0.782231         1.833615
 C         2.601626        -1.397713         2.189541
 C         3.772472        -0.827749         1.477688
 C         3.579870         0.436257         0.702616
 O         2.240276         0.941412         0.702448
 C         3.588170        -0.774685        -0.082503
 O         2.218661        -1.056039        -0.423402
 H        -0.356714         0.735289         0.154199
 H         0.403620         0.501990        -1.474619
 H        -0.129829        -1.051214        -0.511431
 H         1.044330         0.141950         2.463878
 H         0.368624        -1.482368         1.942443
 H         2.651406        -1.378085         3.335672
 H         2.555009        -2.398662         1.882519
 H         4.819412        -1.116231         1.783509
 H         4.302632         1.176256         0.585330
 H         4.377963        -1.133805        -0.831666
