19
Iteration:  3027
 C         0.253843         0.205162        -0.402875
 C         1.453422        -0.293556         0.426306
 C         1.279975        -1.072996         1.757233
 C         2.621403        -1.022906         2.464693
 C         3.761793        -0.913417         1.421259
 C         3.568755         0.442248         0.642459
 O         2.275602         0.964075         0.723282
 C         3.515835        -0.905547        -0.079219
 O         2.183082        -1.103572        -0.523777
 H        -0.565149         0.706393         0.173875
 H         0.654303         1.027123        -1.067141
 H        -0.110741        -0.689179        -0.937181
 H         0.420246        -0.535364         2.279654
 H         1.011998        -2.072369         1.368616
 H         2.736186        -0.232502         3.173206
 H         2.840819        -1.953810         3.074875
 H         4.734200        -1.310483         1.704465
 H         4.336252         1.125000         0.227785
 H         4.196086        -1.159090        -0.857580
