19
Iteration:   376charge 0 multiplicity 1
 C         0.164989        -0.041031        -0.347146
 C         1.451080        -0.248618         0.427401
 C         1.248436        -0.892648         1.796067
 C         2.615048        -1.511670         2.221635
 C         3.783785        -0.923695         1.437212
 C         3.535890         0.507874         0.784155
 O         2.201654         0.959742         0.708344
 C         3.611546        -0.660331        -0.100074
 O         2.309170        -0.882025        -0.551295
 H        -0.668686         0.394083         0.232528
 H         0.452786         0.706598        -1.188588
 H        -0.122225        -0.970764        -0.912450
 H         0.968024        -0.024349         2.479160
 H         0.349633        -1.576795         1.785971
 H         2.782830        -1.296797         3.392994
 H         2.710567        -2.666991         2.223064
 H         4.828190        -1.051833         1.867015
 H         4.263911         1.378219         0.899033
 H         4.388830        -0.941817        -0.837866
