19
Iteration:  4080charge 0 multiplicity 1
 C         0.250443         0.221708        -0.415734
 C         1.406265        -0.257810         0.429479
 C         1.279835        -0.797919         1.863215
 C         2.632546        -1.323252         2.333442
 C         3.743493        -0.788263         1.483449
 C         3.570024         0.415760         0.555339
 O         2.308786         0.965235         0.428954
 C         3.526425        -0.921684        -0.002497
 O         2.179781        -1.191694        -0.279339
 H        -0.363141         0.884343         0.174205
 H         0.681076         0.950149        -1.151334
 H        -0.236053        -0.566035        -0.974164
 H         0.806792         0.070409         2.399230
 H         0.630228        -1.602007         2.021757
 H         2.767336        -1.030476         3.418790
 H         2.808725        -2.410485         2.445264
 H         4.619219        -1.115457         2.016694
 H         4.491832         1.019795         0.254594
 H         4.121924        -1.219555        -0.873191
