19
Iteration:  2961
 C         0.161890         0.133543        -0.262480
 C         1.436485        -0.278329         0.361527
 C         1.300605        -0.787972         1.797698
 C         2.563502        -1.500995         2.296563
 C         3.686200        -0.786549         1.477957
 C         3.555743         0.511183         0.676645
 O         2.233049         0.996678         0.433355
 C         3.707703        -0.887211        -0.065754
 O         2.298467        -1.098428        -0.372688
 H        -0.464594         0.814760         0.337573
 H         0.426047         0.648205        -1.295768
 H        -0.563489        -0.655729        -0.465894
 H         1.325678         0.160601         2.443446
 H         0.369589        -1.300227         2.112846
 H         2.708035        -1.338087         3.359774
 H         2.513274        -2.650747         2.100712
 H         4.657381        -0.856324         2.067471
 H         4.168456         1.374184         0.770375
 H         4.468938        -1.469221        -0.709338
