19
Iteration:  2500charge 0 multiplicity 1
 C         0.188055         0.156299        -0.357038
 C         1.434648        -0.189177         0.440951
 C         1.267560        -0.918975         1.762639
 C         2.647414        -1.467674         2.258544
 C         3.769219        -0.788267         1.471844
 C         3.537239         0.439689         0.627029
 O         2.237595         1.068059         0.510684
 C         3.582830        -0.874349        -0.022993
 O         2.269907        -1.118703        -0.301830
 H        -0.437401         0.824195         0.295689
 H         0.713985         0.584513        -1.295734
 H        -0.398034        -0.646728        -0.789111
 H         1.011896        -0.058694         2.458141
 H         0.395562        -1.653183         1.701689
 H         2.576918        -1.321432         3.310979
 H         2.663123        -2.596985         2.065435
 H         4.731433        -0.612913         1.869526
 H         4.365982         1.188358         0.698844
 H         4.190196        -1.241320        -0.740823
