19
Iteration:  3404charge 0 multiplicity 1
 C         0.250323         0.175623        -0.367949
 C         1.438215        -0.202299         0.399048
 C         1.254949        -0.743372         1.903445
 C         2.630272        -1.426747         2.267431
 C         3.763736        -0.724860         1.507397
 C         3.537125         0.430912         0.595158
 O         2.251089         0.963383         0.429190
 C         3.610226        -0.890252         0.009440
 O         2.203741        -1.239010        -0.335277
 H        -0.476008         0.778742         0.214638
 H         0.373939         0.836175        -1.196447
 H        -0.351810        -0.651326        -0.745243
 H         1.004446         0.192086         2.555627
 H         0.482484        -1.526155         2.076969
 H         2.753688        -1.401967         3.349807
 H         2.590377        -2.430503         1.831459
 H         4.778902        -0.778989         1.893183
 H         4.443016         1.088273         0.627426
 H         4.361005        -1.184863        -0.793051
