19
Iteration:  1041charge 0 multiplicity 1
 C         0.114140         0.086713        -0.215150
 C         1.448791        -0.208480         0.318885
 C         1.268132        -1.044486         1.555204
 C         2.645797        -1.357132         2.351206
 C         3.785214        -0.773064         1.586139
 C         3.558694         0.496578         0.775772
 O         2.252075         0.925518         0.688194
 C         3.590828        -0.846536        -0.020983
 O         2.263784        -0.933197        -0.675444
 H        -0.412492         0.715837         0.526438
 H         0.247348         0.674720        -1.137781
 H        -0.343881        -0.925924        -0.185414
 H         0.682132        -0.354948         2.315953
 H         0.633690        -2.043276         1.335600
 H         2.640966        -0.844181         3.321223
 H         2.697775        -2.484283         2.409542
 H         4.883143        -0.898439         1.917166
 H         4.365801         1.214457         0.821175
 H         4.469675        -1.223053        -0.663351
