19
Iteration:  3114charge 0 multiplicity 1
 C         0.018781         0.119863        -0.255607
 C         1.477163        -0.246774         0.363290
 C         1.285886        -0.821892         1.745154
 C         2.592601        -1.322133         2.378681
 C         3.812862        -0.909782         1.566653
 C         3.541998         0.440736         0.639029
 O         2.304556         1.045110         0.448898
 C         3.617486        -0.884650         0.056608
 O         2.327703        -1.076372        -0.524752
 H        -0.352085         1.061076         0.155599
 H        -0.075654         0.295776        -1.318384
 H        -0.591095        -0.776220        -0.141123
 H         0.719432        -0.157962         2.492739
 H         0.561497        -1.672787         1.598892
 H         2.652233        -0.959629         3.366766
 H         2.511040        -2.429067         2.511045
 H         4.698196        -1.425501         1.860696
 H         4.321807         1.249394         0.434158
 H         4.343521        -1.239315        -0.594236
