19
Iteration:  4393
 C         0.117198         0.066707        -0.407005
 C         1.436842        -0.224703         0.349054
 C         1.310142        -0.680647         1.968402
 C         2.591319        -1.319857         2.488551
 C         3.719594        -0.879338         1.558973
 C         3.611912         0.316247         0.607741
 O         2.357269         0.980293         0.462755
 C         3.545283        -0.927283        -0.089787
 O         2.219052        -1.033788        -0.499480
 H        -0.520293         0.775386         0.240919
 H         0.295331         0.555219        -1.347987
 H        -0.420478        -0.919236        -0.576893
 H         1.149228         0.263287         2.254080
 H         0.317551        -1.258456         1.844869
 H         2.827356        -0.957320         3.478914
 H         2.498012        -2.477431         2.516025
 H         4.787640        -0.996946         1.819638
 H         4.467183         0.968435         0.398211
 H         4.447915        -1.365368        -0.669668
