19
Iteration:  4086charge 0 multiplicity 1
 C         0.240656         0.236489        -0.398867
 C         1.431588        -0.230471         0.444318
 C         1.181268        -0.815238         1.849362
 C         2.627590        -1.356756         2.351383
 C         3.804024        -0.759253         1.489630
 C         3.575710         0.473051         0.531800
 O         2.342819         0.951350         0.415714
 C         3.533447        -0.911527        -0.036203
 O         2.189310        -1.227111        -0.234436
 H        -0.377391         0.935993         0.213337
 H         0.722418         0.863600        -1.163190
 H        -0.232263        -0.614463        -0.919020
 H         0.839372        -0.064153         2.564485
 H         0.303853        -1.625612         1.831887
 H         2.725650        -1.062896         3.376397
 H         2.550252        -2.467430         2.281935
 H         4.834057        -0.902552         1.912101
 H         4.387333         1.066846         0.208860
 H         4.058924        -1.411773        -0.895578
