19
Iteration:  3370
 C         0.139758         0.087033        -0.338886
 C         1.486020        -0.236747         0.329402
 C         1.271718        -0.665700         1.858776
 C         2.590066        -1.319895         2.274232
 C         3.776262        -0.876256         1.473759
 C         3.564171         0.399387         0.646636
 O         2.268173         0.987116         0.486727
 C         3.577061        -0.905100         0.045245
 O         2.232640        -1.137515        -0.411071
 H        -0.513354         0.436190         0.453796
 H         0.233879         0.764610        -1.225937
 H        -0.160739        -0.894520        -0.681457
 H         1.036992         0.297476         2.507118
 H         0.435301        -1.344029         2.082914
 H         2.809942        -1.216604         3.332412
 H         2.686477        -2.412437         2.158177
 H         4.831348        -1.136261         1.642643
 H         4.401904         1.198459         0.749911
 H         4.419177        -1.135266        -0.619839
