19
Iteration:  1722
 C         0.161941         0.313082        -0.284417
 C         1.446673        -0.296951         0.347325
 C         1.243994        -1.176439         1.632909
 C         2.661974        -1.224773         2.426196
 C         3.821404        -0.862348         1.438063
 C         3.515796         0.471389         0.732797
 O         2.214525         0.943009         0.648579
 C         3.607599        -0.808673        -0.053684
 O         2.293362        -1.064421        -0.486987
 H        -0.346566         0.928578         0.504833
 H         0.450290         1.024733        -1.111351
 H        -0.599358        -0.453725        -0.581022
 H         0.278572        -0.866875         2.131067
 H         0.987343        -2.157033         1.197806
 H         2.529645        -0.359945         3.108304
 H         2.676037        -2.161576         2.913570
 H         4.856268        -0.956299         1.696023
 H         4.275128         1.193566         0.588058
 H         4.313930        -1.290340        -0.816137
