19
Iteration:  2536charge 0 multiplicity 1
 C         0.116916         0.184021        -0.210876
 C         1.431753        -0.238347         0.326177
 C         1.272081        -0.989319         1.628300
 C         2.602258        -1.246238         2.384065
 C         3.800605        -0.815513         1.539006
 C         3.601079         0.418459         0.674800
 O         2.249696         0.931239         0.619992
 C         3.566693        -0.887804        -0.065343
 O         2.287127        -1.080558        -0.546112
 H        -0.204496         1.144368         0.195816
 H         0.285738         0.531873        -1.178602
 H        -0.669842        -0.630471        -0.125991
 H         0.753311        -0.174904         2.318544
 H         0.479816        -1.792106         1.537386
 H         2.695399        -0.641771         3.415137
 H         2.740348        -2.262575         2.693898
 H         4.843661        -1.000658         1.893509
 H         4.348613         1.161573         0.589483
 H         4.499706        -1.110101        -0.755928
