19
Iteration:  3766
 C         0.158583         0.256535        -0.219928
 C         1.490927        -0.164555         0.415979
 C         1.355810        -1.054249         1.640468
 C         2.588533        -1.104081         2.524122
 C         3.679759        -0.801075         1.513402
 C         3.688391         0.386085         0.570963
 O         2.308447         0.972236         0.519341
 C         3.464652        -1.022661         0.005752
 O         2.190380        -1.120895        -0.558542
 H        -0.233352         0.932787         0.461791
 H         0.448280         0.680920        -1.237481
 H        -0.412634        -0.635084        -0.347412
 H         0.448164        -0.671061         2.248411
 H         1.144793        -2.019186         1.279672
 H         2.659339        -0.244250         3.239245
 H         2.468609        -2.045727         3.110769
 H         4.652962        -1.233156         1.801834
 H         4.527491         1.033121         0.329209
 H         4.251424        -1.426547        -0.588696
