19
Iteration:  2951charge 0 multiplicity 1
 C         0.177573         0.130282        -0.355462
 C         1.447728        -0.268964         0.434293
 C         1.295821        -0.734765         1.955411
 C         2.581885        -1.491750         2.210285
 C         3.700808        -0.784133         1.492074
 C         3.545767         0.511388         0.656220
 O         2.228098         0.923278         0.450180
 C         3.620588        -0.843767         0.041784
 O         2.296931        -1.103301        -0.426156
 H        -0.274825         1.014523         0.128798
 H         0.513954         0.488068        -1.415521
 H        -0.433875        -0.763339        -0.476168
 H         1.232534         0.164882         2.632814
 H         0.434131        -1.327584         1.942822
 H         2.773137        -1.624729         3.292686
 H         2.498497        -2.546126         1.770132
 H         4.786817        -0.819413         1.730639
 H         4.304658         1.261761         0.575359
 H         4.377199        -1.244005        -0.695329
