19
Iteration:  1254
 C         0.187818         0.215793        -0.249268
 C         1.475422        -0.278528         0.331648
 C         1.279977        -1.131115         1.642786
 C         2.639706        -1.297301         2.398384
 C         3.764525        -0.751537         1.487411
 C         3.532148         0.494881         0.701232
 O         2.232285         0.961090         0.714824
 C         3.622303        -0.881359         0.014837
 O         2.227121        -0.994979        -0.638880
 H        -0.497432         0.821752         0.383306
 H         0.445553         0.802936        -1.208114
 H        -0.546917        -0.604553        -0.559307
 H         0.553960        -0.533689         2.379381
 H         0.907523        -2.138973         1.373875
 H         2.805976        -0.776982         3.360980
 H         2.665909        -2.335454         2.398058
 H         4.781933        -1.093995         1.961298
 H         4.220638         1.322257         0.497055
 H         4.347034        -1.421797        -0.642565
