19
Iteration:  2122
 C         0.239878         0.180180        -0.404717
 C         1.428088        -0.263002         0.378097
 C         1.289367        -1.151677         1.714498
 C         2.679561        -1.061467         2.411442
 C         3.767802        -0.994810         1.449007
 C         3.594556         0.412985         0.717348
 O         2.192039         0.901146         0.844832
 C         3.523779        -0.780436        -0.137636
 O         2.241282        -0.958955        -0.602579
 H        -0.451965         0.862189         0.067082
 H         0.615519         0.638478        -1.376352
 H        -0.508132        -0.568068        -0.598462
 H         0.501361        -0.535809         2.204664
 H         0.942344        -2.132874         1.596772
 H         2.628823        -0.213803         3.036277
 H         2.744662        -1.976786         3.142001
 H         4.812363        -1.284525         1.841801
 H         4.299306         1.189376         0.674082
 H         4.262148        -1.210676        -0.912607
