19
Iteration:  1435charge 0 multiplicity 1
 C         0.114691         0.196211        -0.271023
 C         1.460051        -0.291183         0.395547
 C         1.288446        -1.078299         1.663065
 C         2.610800        -1.128270         2.364760
 C         3.734764        -0.920651         1.437193
 C         3.559370         0.497231         0.742403
 O         2.253999         0.875318         0.722798
 C         3.573978        -0.853262        -0.116585
 O         2.310918        -0.989238        -0.554539
 H        -0.327317         1.075712         0.229678
 H         0.328063         0.760013        -1.245142
 H        -0.538130        -0.628922        -0.422079
 H         0.358078        -0.867116         2.170015
 H         1.162703        -2.222032         1.302243
 H         2.696171        -0.328492         3.082908
 H         2.755647        -2.051326         3.003886
 H         4.851583        -1.171796         1.661654
 H         4.289525         1.269619         0.859040
 H         4.337246        -1.130811        -0.832935
