19
Iteration:  3758charge 0 multiplicity 1
 C         0.170511         0.264798        -0.280570
 C         1.456223        -0.175234         0.398519
 C         1.369535        -1.127444         1.646398
 C         2.568897        -1.025443         2.559256
 C         3.733889        -0.827647         1.474859
 C         3.698245         0.364182         0.608346
 O         2.320517         0.979411         0.518092
 C         3.481095        -0.970845        -0.018650
 O         2.162991        -1.128078        -0.511916
 H        -0.328415         1.014147         0.370876
 H         0.301826         0.943316        -1.129763
 H        -0.640143        -0.463991        -0.442721
 H         0.542298        -0.870054         2.194686
 H         1.080905        -2.140371         1.281573
 H         2.475935        -0.265402         3.363862
 H         2.883561        -1.982695         3.061988
 H         4.650750        -1.289602         1.723794
 H         4.492134         1.006217         0.454665
 H         4.122854        -1.655496        -0.555975
