19
Iteration:  3867charge 0 multiplicity 1
 C         0.135446         0.252617        -0.365288
 C         1.455223        -0.151422         0.359853
 C         1.272979        -0.695410         1.839278
 C         2.602196        -1.403476         2.267233
 C         3.830448        -0.791058         1.536875
 C         3.575620         0.435955         0.621645
 O         2.253647         0.997689         0.433999
 C         3.565011        -0.959297        -0.000295
 O         2.244144        -1.294073        -0.291098
 H        -0.399703         0.869956         0.427272
 H         0.407811         0.832508        -1.227678
 H        -0.351680        -0.726866        -0.606301
 H         0.954578         0.134989         2.483119
 H         0.437280        -1.497106         1.745572
 H         2.732156        -1.428475         3.370934
 H         2.640477        -2.521019         1.892197
 H         4.787074        -1.021092         1.987963
 H         4.519579         1.055638         0.553399
 H         4.121562        -1.268652        -0.938294
