19
Iteration:  2164
 C         0.196006         0.280238        -0.239976
 C         1.454986        -0.296626         0.338845
 C         1.282598        -1.197163         1.563868
 C         2.566580        -1.213729         2.412089
 C         3.745965        -0.754024         1.512124
 C         3.600349         0.474689         0.592744
 O         2.253236         1.002324         0.691414
 C         3.583244        -0.873152         0.001614
 O         2.237441        -1.084882        -0.563518
 H        -0.182123         0.903840         0.620384
 H         0.468280         1.023704        -1.110375
 H        -0.637477        -0.504610        -0.321405
 H         0.597980        -0.896110         2.395881
 H         1.065657        -2.145655         1.155952
 H         2.475042        -0.512354         3.300256
 H         2.839814        -2.237361         2.853899
 H         4.737396        -1.102483         1.985419
 H         4.321398         1.224497         0.496091
 H         4.361857        -1.528063        -0.520370
