19
Iteration:  3422
 C         0.130939         0.150032        -0.355215
 C         1.484226        -0.245842         0.420165
 C         1.315201        -0.793501         1.774503
 C         2.594790        -1.388270         2.287535
 C         3.801041        -0.779046         1.513132
 C         3.597680         0.524034         0.605389
 O         2.278557         0.997654         0.456831
 C         3.529614        -0.975657         0.067663
 O         2.184519        -1.130340        -0.319465
 H        -0.385184         0.978584         0.111402
 H         0.539340         0.562367        -1.377190
 H        -0.330658        -0.784750        -0.644516
 H         0.918938        -0.097817         2.504834
 H         0.547272        -1.493344         1.608297
 H         2.781560        -1.195885         3.365431
 H         2.857919        -2.437491         1.988290
 H         4.813202        -1.104083         1.833308
 H         4.287561         1.376852         0.219532
 H         4.172828        -1.635546        -0.475275
