19
Iteration:    21charge 0 multiplicity 1
 C        -0.079102         0.082521        -0.274938
 C         1.414273        -0.205505         0.320878
 C         1.213326        -1.022993         1.624940
 C         2.598288        -1.241730         2.337008
 C         3.850755        -0.948379         1.385650
 C         3.659313         0.445940         0.820556
 O         2.302894         0.945452         0.787555
 C         3.657203        -0.724224        -0.118847
 O         2.319628        -0.990647        -0.566631
 H        -0.611775         0.477671         0.526146
 H        -0.059198         0.771653        -1.099055
 H        -0.399925        -0.920198        -0.488609
 H         0.508571        -0.499679         2.277893
 H         0.756721        -2.014876         1.398675
 H         2.731991        -0.547352         3.209680
 H         2.665773        -2.213757         2.780683
 H         4.852147        -1.301799         1.795287
 H         4.429104         1.192049         0.841709
 H         4.459947        -0.899072        -0.837810
