19
Iteration:  1143
 C         0.126629         0.082658        -0.245948
 C         1.493120        -0.146745         0.379731
 C         1.247247        -0.968072         1.667471
 C         2.599292        -1.460008         2.273655
 C         3.777289        -0.884286         1.497696
 C         3.563847         0.547806         0.780753
 O         2.246766         1.027123         0.531350
 C         3.604184        -0.712597        -0.045782
 O         2.291512        -1.113412        -0.479700
 H        -0.346581         0.558786         0.640564
 H         0.161109         0.673173        -1.193971
 H        -0.358331        -0.881839        -0.420966
 H         0.538311        -0.361461         2.411811
 H         0.811451        -1.891532         1.296983
 H         2.854670        -1.273735         3.319380
 H         2.440840        -2.483217         2.269976
 H         4.762695        -0.856053         1.912445
 H         4.296924         1.276973         1.073840
 H         4.347063        -0.935524        -0.748651
