19
Iteration:  3599charge 0 multiplicity 1
 C         0.198644         0.077121        -0.408280
 C         1.476865        -0.102053         0.406647
 C         1.282293        -0.781624         1.856271
 C         2.568968        -1.462738         2.318634
 C         3.795485        -0.797184         1.506350
 C         3.583603         0.543972         0.657719
 O         2.330039         0.939941         0.467757
 C         3.553502        -0.919843        -0.025890
 O         2.134066        -1.144585        -0.377299
 H        -0.526713         0.763370         0.120637
 H         0.481162         0.502057        -1.322667
 H        -0.237547        -0.939634        -0.498950
 H         1.006965         0.072194         2.577342
 H         0.427079        -1.339463         1.843227
 H         2.900851        -1.167889         3.328670
 H         2.768984        -2.546336         2.325747
 H         4.792415        -0.839591         1.881916
 H         4.356199         1.203906         0.510492
 H         4.147127        -1.182773        -0.867174
