19
Iteration:  3056
 C         0.159680         0.350901        -0.420550
 C         1.437967        -0.323340         0.364076
 C         1.277563        -1.146040         1.726312
 C         2.642720        -1.006821         2.426393
 C         3.824154        -0.834932         1.454864
 C         3.544574         0.412842         0.654722
 O         2.279065         0.860898         0.754738
 C         3.589900        -0.967621        -0.066977
 O         2.201534        -1.088702        -0.491696
 H        -0.431075         0.964980         0.219776
 H         0.498744         0.842650        -1.384081
 H        -0.609410        -0.379494        -0.655544
 H         0.563086        -0.624706         2.321658
 H         0.845925        -2.154560         1.383456
 H         2.595020         0.011825         2.857857
 H         2.875903        -1.734518         3.213102
 H         4.884158        -0.986401         1.780639
 H         4.233638         1.169124         0.437670
 H         4.193782        -1.349586        -0.957951
