19
Iteration:  2403charge 0 multiplicity 1
 C         0.138040         0.271969        -0.280280
 C         1.408824        -0.206290         0.394095
 C         1.273333        -1.088587         1.703438
 C         2.629097        -1.302732         2.371723
 C         3.770997        -0.823089         1.526546
 C         3.598405         0.431052         0.618041
 O         2.241371         0.941485         0.539609
 C         3.582187        -0.866951        -0.028044
 O         2.307034        -1.074405        -0.489419
 H        -0.281918         0.868397         0.553377
 H         0.436888         0.837220        -1.231793
 H        -0.574166        -0.526582        -0.396271
 H         0.650461        -0.367725         2.360558
 H         0.641743        -1.994908         1.363206
 H         2.588304        -0.587869         3.351456
 H         2.624975        -2.311900         2.774528
 H         4.719013        -1.025120         1.969277
 H         4.336440         1.287481         0.530023
 H         4.333464        -1.096253        -0.665292
