19
Iteration:  1846
 C         0.192462         0.183507        -0.316036
 C         1.406950        -0.198086         0.344116
 C         1.319731        -0.958882         1.749525
 C         2.609128        -1.426967         2.213305
 C         3.797888        -0.808170         1.480348
 C         3.550108         0.471918         0.740344
 O         2.207553         0.972295         0.551431
 C         3.619217        -0.756077         0.024434
 O         2.273612        -1.088033        -0.388598
 H        -0.471953         0.623479         0.439233
 H         0.280108         0.615042        -1.298666
 H        -0.183145        -0.831991        -0.547370
 H         0.618835        -0.322093         2.442704
 H         0.672918        -1.816710         1.604474
 H         2.709395        -1.333213         3.272435
 H         2.503508        -2.518862         1.948910
 H         4.807264        -0.968213         1.859650
 H         4.229499         1.274879         0.767115
 H         4.248820        -1.007054        -0.839461
