19
Iteration:  4005
 C         0.127412         0.265534        -0.328730
 C         1.483612        -0.105742         0.341931
 C         1.296609        -1.013471         1.721991
 C         2.601750        -1.078382         2.550117
 C         3.741577        -0.833334         1.497353
 C         3.648699         0.306904         0.573913
 O         2.340880         0.928330         0.525748
 C         3.546186        -1.019669        -0.024478
 O         2.164319        -1.116967        -0.477687
 H        -0.343365         1.052205         0.297408
 H         0.154650         0.646205        -1.413255
 H        -0.537959        -0.654089        -0.307795
 H         0.479665        -0.564525         2.406200
 H         0.949544        -1.961756         1.389203
 H         2.594448        -0.263077         3.371669
 H         2.677567        -2.016930         3.114421
 H         4.777804        -1.038049         1.749003
 H         4.618844         0.907969         0.521636
 H         4.254060        -1.409491        -0.802327
