19
Iteration:  3760
 C         0.172314         0.257820        -0.275901
 C         1.466856        -0.165370         0.412058
 C         1.381537        -1.114012         1.638102
 C         2.565866        -1.043175         2.560038
 C         3.721547        -0.811300         1.471354
 C         3.699327         0.363286         0.603916
 O         2.311430         0.981326         0.516394
 C         3.475000        -0.975413        -0.006683
 O         2.168127        -1.132052        -0.524337
 H        -0.319467         1.046721         0.417328
 H         0.320375         0.904647        -1.123160
 H        -0.633013        -0.524841        -0.417749
 H         0.526850        -0.826000         2.210436
 H         1.056711        -2.151096         1.275143
 H         2.527972        -0.282150         3.342724
 H         2.778604        -1.996283         3.088119
 H         4.628958        -1.315780         1.743941
 H         4.550764         1.003533         0.416775
 H         4.158372        -1.642841        -0.581921
