19
Iteration:  2849
 C         0.076712         0.233909        -0.180317
 C         1.426586        -0.220625         0.396566
 C         1.243354        -1.109668         1.639456
 C         2.570363        -1.078497         2.417578
 C         3.773096        -0.835611         1.551476
 C         3.670633         0.410195         0.649269
 O         2.332539         0.958008         0.537405
 C         3.564315        -0.958116        -0.042160
 O         2.280402        -1.082280        -0.558878
 H        -0.486068         0.655006         0.700353
 H         0.399346         0.940397        -0.899464
 H        -0.576529        -0.562103        -0.636567
 H         0.333745        -0.902428         2.212766
 H         1.097855        -2.153837         1.237586
 H         2.580840        -0.303659         3.131626
 H         2.518631        -2.079766         2.963289
 H         4.758196        -1.023367         1.845598
 H         4.415503         1.212839         0.404750
 H         4.312803        -1.149980        -0.718904
