19
Iteration:  4940charge 0 multiplicity 1
 C         0.229162         0.179943        -0.364622
 C         1.440201        -0.215019         0.361532
 C         1.344384        -0.801849         1.792658
 C         2.637585        -1.134705         2.358193
 C         3.808135        -0.948413         1.449219
 C         3.536350         0.382354         0.763171
 O         2.240486         0.950964         0.518862
 C         3.495015        -0.998274         0.010420
 O         2.191254        -1.120343        -0.472783
 H        -0.127188         0.983445         0.383936
 H         0.576454         0.581178        -1.301548
 H        -0.643045        -0.548099        -0.479044
 H         0.950455        -0.032399         2.426615
 H         0.666217        -1.763449         1.714809
 H         2.779202        -0.520326         3.201707
 H         2.683692        -2.114093         2.740177
 H         4.787593        -1.299801         1.583119
 H         4.334879         1.004284         0.370585
 H         4.246962        -1.209172        -0.741185
