19
Iteration:  1680charge 0 multiplicity 1
 C         0.163255         0.220530        -0.213627
 C         1.455544        -0.297493         0.295117
 C         1.262779        -1.188010         1.559675
 C         2.559508        -1.115396         2.440271
 C         3.760433        -0.806473         1.513056
 C         3.632588         0.514201         0.658537
 O         2.297394         0.881760         0.782968
 C         3.575201        -0.955081        -0.068165
 O         2.229876        -0.960269        -0.610405
 H        -0.435864         0.800227         0.481666
 H         0.273727         0.677834        -1.217092
 H        -0.537934        -0.515302        -0.561760
 H         0.269635        -0.861578         2.176886
 H         1.146170        -2.245370         1.312517
 H         2.651768        -0.329039         3.215129
 H         2.912619        -2.039634         2.982492
 H         4.772770        -0.921486         1.868013
 H         4.313940         1.338051         0.632636
 H         4.343462        -1.171134        -0.786130
