19
Iteration:  2782charge 0 multiplicity 1
 C         0.196486         0.180694        -0.357439
 C         1.401326        -0.213983         0.386259
 C         1.241732        -0.975874         1.738888
 C         2.673988        -1.174812         2.467976
 C         3.809071        -0.858033         1.420090
 C         3.584006         0.472266         0.712557
 O         2.230003         0.894070         0.671127
 C         3.529506        -0.939164        -0.102608
 O         2.255479        -1.059834        -0.536643
 H        -0.320714         0.884514         0.333121
 H         0.456446         0.618016        -1.288520
 H        -0.388276        -0.683844        -0.697252
 H         0.638260        -0.339599         2.367557
 H         0.654747        -1.841451         1.325901
 H         2.625560        -0.447552         3.248991
 H         2.906053        -2.179890         2.862323
 H         4.828127        -1.141493         1.685730
 H         4.352899         1.217353         0.721393
 H         4.301090        -1.384284        -0.813980
