19
Iteration:   538
 C         0.130157         0.309184        -0.233252
 C         1.433730        -0.287485         0.306342
 C         1.376559        -1.278340         1.540516
 C         2.638537        -1.269611         2.449653
 C         3.719782        -0.753401         1.536315
 C         3.581955         0.500832         0.663020
 O         2.166115         0.844974         0.775771
 C         3.547300        -0.811423        -0.047054
 O         2.353508        -0.939760        -0.659529
 H        -0.403838         0.758214         0.568423
 H         0.207589         1.008329        -1.068251
 H        -0.514894        -0.427214        -0.687843
 H         0.550179        -0.898507         2.185293
 H         0.954772        -2.301587         1.417863
 H         2.341637        -0.568812         3.266658
 H         2.992047        -2.265604         2.789235
 H         4.731018        -0.977571         2.022758
 H         4.282855         1.347768         0.694595
 H         4.467341        -1.130675        -0.555929
