19
Iteration:  2729charge 0 multiplicity 1
 C         0.100468         0.176495        -0.344619
 C         1.363334        -0.213057         0.349997
 C         1.344845        -0.822650         1.859353
 C         2.643648        -1.444147         2.184027
 C         3.778432        -0.797753         1.540927
 C         3.543793         0.531161         0.688945
 O         2.242768         0.979231         0.470847
 C         3.619837        -0.881672         0.109631
 O         2.291921        -1.144541        -0.451641
 H        -0.400356         1.010390         0.269678
 H         0.344971         0.452852        -1.379708
 H        -0.623212        -0.719283        -0.249072
 H         1.053510        -0.012934         2.487625
 H         0.522176        -1.507808         1.898678
 H         2.759625        -1.602962         3.241539
 H         2.567939        -2.527371         1.712625
 H         4.739223        -0.866299         2.014407
 H         4.400943         1.150961         0.656332
 H         4.405861        -1.365586        -0.537157
