19
Iteration:  2037
 C         0.146116         0.155751        -0.375207
 C         1.450000        -0.251500         0.406830
 C         1.283916        -0.812478         1.827518
 C         2.598150        -1.587542         2.135408
 C         3.774669        -0.729282         1.548572
 C         3.482394         0.520241         0.711814
 O         2.210393         0.915294         0.546709
 C         3.616215        -0.812407         0.064948
 O         2.337124        -1.077693        -0.442297
 H        -0.380091         0.747443         0.326580
 H         0.468057         0.858547        -1.172696
 H        -0.369122        -0.621865        -0.786693
 H         1.211408         0.102839         2.442203
 H         0.401002        -1.472905         2.181051
 H         2.722324        -1.643103         3.196366
 H         2.770318        -2.588367         1.728850
 H         4.763437        -0.992753         2.060628
 H         4.171774         1.258530         0.439587
 H         4.319126        -0.900983        -0.838638
