19
Iteration:  4686
 C         0.143248         0.317142        -0.332856
 C         1.448587        -0.231981         0.389080
 C         1.234865        -0.783546         1.756881
 C         2.584056        -1.258174         2.350249
 C         3.802231        -0.751769         1.479429
 C         3.596309         0.437546         0.597516
 O         2.290333         0.928757         0.586357
 C         3.588854        -1.059608        -0.029246
 O         2.256049        -1.267271        -0.434690
 H        -0.195342         1.175734         0.239626
 H         0.408643         0.498142        -1.382461
 H        -0.637696        -0.457957        -0.331811
 H         0.880240         0.027977         2.452643
 H         0.425054        -1.415336         1.753239
 H         2.701210        -0.893685         3.447577
 H         2.615523        -2.362142         2.349351
 H         4.773262        -0.983512         1.929076
 H         4.316345         1.224693         0.332049
 H         4.252625        -1.497214        -0.665332
