19
Iteration:  3320charge 0 multiplicity 1
 C         0.155163         0.186185        -0.311712
 C         1.447269        -0.252001         0.386404
 C         1.218102        -0.910729         1.731730
 C         2.583016        -1.155222         2.383088
 C         3.834133        -0.876282         1.462786
 C         3.628743         0.451162         0.686630
 O         2.279482         0.969181         0.539219
 C         3.559537        -0.946595        -0.016342
 O         2.207450        -1.137658        -0.487720
 H        -0.149779         1.032930         0.382290
 H         0.429960         0.559914        -1.268806
 H        -0.619741        -0.616979        -0.232264
 H         0.509571        -0.483409         2.325505
 H         0.859437        -1.972581         1.636993
 H         2.738199        -0.565140         3.317748
 H         2.859468        -2.134417         2.772997
 H         4.839051        -0.876312         1.873653
 H         4.374155         1.154347         0.310841
 H         4.311802        -1.418161        -0.733992
