19
Iteration:  3157charge 0 multiplicity 1
 C         0.272570         0.098738        -0.497657
 C         1.367733        -0.178536         0.452290
 C         1.318275        -0.729436         1.919927
 C         2.606346        -1.457670         2.241494
 C         3.785649        -0.816700         1.464589
 C         3.592726         0.483812         0.595943
 O         2.220264         1.049348         0.543986
 C         3.579765        -0.854872        -0.011600
 O         2.191404        -1.214608        -0.278909
 H        -0.477617         0.801610        -0.081361
 H         0.748071         0.561477        -1.371776
 H        -0.240244        -0.811962        -0.828782
 H         0.912317         0.053067         2.607330
 H         0.566486        -1.568226         2.023471
 H         2.804453        -1.595019         3.301958
 H         2.492605        -2.504552         1.836637
 H         4.783641        -0.965377         1.820304
 H         4.359254         1.283896         0.310965
 H         4.240807        -1.207492        -0.746035
