19
Iteration:  4193
 C         0.142148         0.203890        -0.369786
 C         1.395294        -0.170182         0.418600
 C         1.182342        -0.844130         1.682025
 C         2.628315        -1.114145         2.349992
 C         3.768944        -0.775901         1.455840
 C         3.697471         0.412453         0.535101
 O         2.379549         0.893776         0.620205
 C         3.543446        -0.990683         0.004617
 O         2.197821        -1.200299        -0.329527
 H        -0.454116         0.956611         0.201191
 H         0.373885         0.626373        -1.379650
 H        -0.574154        -0.644185        -0.407758
 H         0.440803        -0.340196         2.375313
 H         0.838882        -1.808157         1.441101
 H         2.657009        -0.712175         3.428713
 H         2.578946        -2.192674         2.650826
 H         4.786305        -1.128910         1.708471
 H         4.572881         0.969594         0.196696
 H         4.306477        -1.533351        -0.692819
