19
Iteration:  2277charge 0 multiplicity 1
 C         0.193997         0.195227        -0.314870
 C         1.438911        -0.200712         0.388463
 C         1.286319        -0.828474         1.781073
 C         2.629357        -1.495545         2.212798
 C         3.787422        -0.805653         1.481645
 C         3.514710         0.524691         0.754879
 O         2.228328         0.956567         0.491694
 C         3.598682        -0.815490        -0.009151
 O         2.263059        -1.195883        -0.391624
 H        -0.482675         0.786911         0.339415
 H         0.465532         0.845130        -1.127225
 H        -0.210396        -0.781991        -0.660787
 H         1.003849        -0.108277         2.489921
 H         0.458803        -1.421710         1.560575
 H         2.714389        -1.224185         3.217314
 H         2.669394        -2.673306         2.159839
 H         4.717956        -0.852401         1.971693
 H         4.298347         1.369474         0.860818
 H         4.166962        -1.058809        -0.866943
