19
Iteration:  2864charge 0 multiplicity 1
 C         0.101402         0.270332        -0.222048
 C         1.482581        -0.246278         0.261807
 C         1.296125        -1.043564         1.657600
 C         2.620912        -1.195756         2.510326
 C         3.756878        -0.827408         1.470950
 C         3.609588         0.431949         0.646737
 O         2.228487         0.936446         0.542048
 C         3.604262        -0.930011         0.052463
 O         2.271940        -1.058853        -0.575191
 H        -0.376728         0.818228         0.588689
 H        -0.031550         1.004073        -1.118994
 H        -0.536504        -0.606069        -0.394934
 H         0.609005        -0.456764         2.287822
 H         0.827863        -1.952713         1.460305
 H         2.576378        -0.532174         3.420338
 H         2.933735        -2.177877         2.899782
 H         4.766823        -1.201134         1.821614
 H         4.368681         1.173333         0.618287
 H         4.254626        -1.676074        -0.512809
