19
Iteration:  3609charge 0 multiplicity 1
 C         0.203435         0.116875        -0.349800
 C         1.440399        -0.253858         0.367671
 C         1.277671        -0.730745         1.847397
 C         2.627035        -1.463081         2.267934
 C         3.781282        -0.772763         1.482555
 C         3.613856         0.443972         0.659404
 O         2.297830         1.049479         0.467196
 C         3.536646        -0.852563         0.023414
 O         2.170712        -1.211186        -0.366478
 H        -0.508732         0.871594         0.072998
 H         0.469408         0.437290        -1.340041
 H        -0.398679        -0.775011        -0.612982
 H         1.253508         0.173167         2.522922
 H         0.462939        -1.405997         1.964810
 H         2.697609        -1.277869         3.358477
 H         2.451508        -2.536132         2.071621
 H         4.753257        -0.789485         1.872080
 H         4.326933         1.157893         0.624063
 H         4.288543        -1.179246        -0.644173
