19
Iteration:  2630
 C         0.193934         0.231302        -0.238346
 C         1.443182        -0.291721         0.320648
 C         1.199569        -1.011451         1.713384
 C         2.637571        -1.176255         2.417709
 C         3.769921        -0.905448         1.484404
 C         3.529486         0.429298         0.693289
 O         2.300524         0.903754         0.539700
 C         3.618166        -0.843705        -0.089633
 O         2.249526        -1.081116        -0.480009
 H        -0.412525         0.712254         0.647709
 H         0.515401         1.158989        -0.835681
 H        -0.484296        -0.564346        -0.695706
 H         0.386658        -0.463510         2.072565
 H         0.730994        -1.971101         1.537405
 H         2.745416        -0.527198         3.272000
 H         2.681500        -2.237643         2.942109
 H         4.776586        -0.644637         1.787804
 H         4.303540         1.167780         0.761431
 H         4.313686        -1.040793        -0.982954
