19
Iteration:  2687
 C         0.189559         0.038051        -0.411842
 C         1.448780        -0.141202         0.447312
 C         1.257674        -0.772371         1.904639
 C         2.575832        -1.408709         2.191423
 C         3.758393        -0.891081         1.466920
 C         3.599286         0.492256         0.719450
 O         2.252281         1.010822         0.559154
 C         3.587870        -0.859109        -0.080107
 O         2.269208        -1.096356        -0.378283
 H        -0.623919         0.680076         0.130880
 H         0.428200         0.379209        -1.429742
 H        -0.427243        -0.945386        -0.658175
 H         1.014224         0.069589         2.598972
 H         0.581777        -1.607832         1.962681
 H         2.772709        -1.292646         3.251156
 H         2.538219        -2.523887         1.899392
 H         4.770384        -1.082215         1.795194
 H         4.304928         1.325708         0.630789
 H         4.346430        -1.178049        -0.839405
