19
Iteration:  4711
 C         0.210870         0.228760        -0.431479
 C         1.479405        -0.200520         0.438286
 C         1.276183        -0.814534         1.852273
 C         2.631505        -1.343796         2.422561
 C         3.811524        -0.867020         1.491932
 C         3.622508         0.462433         0.625608
 O         2.303517         0.986219         0.424672
 C         3.471618        -0.960476        -0.038453
 O         2.135841        -1.123069        -0.351007
 H        -0.152277         1.187835        -0.081862
 H         0.685905         0.267358        -1.458956
 H        -0.503253        -0.588813        -0.509537
 H         0.745929        -0.265304         2.583932
 H         0.505011        -1.667840         1.581686
 H         2.872046        -0.998958         3.452885
 H         2.569118        -2.534941         2.422916
 H         4.790921        -1.060800         1.939605
 H         4.416640         1.218711         0.514754
 H         4.051970        -1.478302        -0.866818
