19
Iteration:  3836charge 0 multiplicity 1
 C         0.279720         0.156392        -0.435193
 C         1.438137        -0.210795         0.471946
 C         1.286002        -0.735718         1.894180
 C         2.595133        -1.416881         2.297206
 C         3.760741        -0.758336         1.462188
 C         3.630387         0.397557         0.544336
 O         2.252802         0.995633         0.510360
 C         3.519034        -0.978566        -0.029333
 O         2.163594        -1.095379        -0.302377
 H        -0.308622         1.099400        -0.110459
 H         0.803002         0.244782        -1.378719
 H        -0.401853        -0.734666        -0.661500
 H         0.974799         0.016387         2.517934
 H         0.547174        -1.622298         1.861549
 H         2.731810        -1.175059         3.372283
 H         2.873645        -2.509547         2.074706
 H         4.704867        -0.981226         1.968766
 H         4.432031         1.217076         0.615184
 H         3.923611        -1.454880        -0.961516
