19
Iteration:  1002
 C         0.189032         0.290106        -0.237736
 C         1.432837        -0.233881         0.423850
 C         1.202347        -1.261106         1.593829
 C         2.623855        -1.271459         2.369214
 C         3.802033        -0.813266         1.443669
 C         3.544065         0.490618         0.764971
 O         2.215007         0.916821         0.671578
 C         3.619356        -0.715965        -0.079714
 O         2.299645        -1.075849        -0.564193
 H        -0.403940         0.925807         0.458456
 H         0.429554         0.711575        -1.211952
 H        -0.481070        -0.536530        -0.466906
 H         0.389442        -1.034602         2.231153
 H         1.182586        -2.142666         1.064263
 H         2.566043        -0.448866         3.138542
 H         2.790455        -2.241774         2.974495
 H         4.795601        -1.016250         1.727316
 H         4.163383         1.435741         0.905651
 H         4.428296        -0.985541        -0.792868
