19
Iteration:  4484charge 0 multiplicity 1
 C         0.232099         0.234853        -0.372852
 C         1.460201        -0.290577         0.366943
 C         1.267204        -0.781027         1.795234
 C         2.589745        -1.191536         2.485434
 C         3.806462        -0.882208         1.464635
 C         3.623728         0.429161         0.595338
 O         2.260002         0.962461         0.589235
 C         3.530194        -0.952329        -0.061982
 O         2.153676        -1.218814        -0.507700
 H        -0.078794         1.029349         0.295453
 H         0.499809         0.694983        -1.398543
 H        -0.515630        -0.554432        -0.393525
 H         0.943069         0.018076         2.356039
 H         0.608367        -1.649652         1.786887
 H         2.641722        -0.603585         3.457492
 H         2.795000        -2.255164         2.736889
 H         4.732693        -1.143862         2.000630
 H         4.465498         1.083777         0.326858
 H         4.226152        -1.376366        -0.666183
