19
Iteration:  4039charge 0 multiplicity 1
 C         0.074733         0.057080        -0.313077
 C         1.478500        -0.231011         0.353793
 C         1.212138        -0.755071         1.785834
 C         2.573957        -1.100160         2.438013
 C         3.717589        -0.921077         1.482232
 C         3.723034         0.301164         0.602460
 O         2.389097         0.946312         0.576372
 C         3.573105        -0.963136        -0.057022
 O         2.199510        -1.031600        -0.513467
 H        -0.584413         0.605927         0.445724
 H         0.131999         0.619025        -1.246143
 H        -0.300264        -0.980917        -0.551810
 H         0.798380         0.047107         2.476663
 H         0.468101        -1.520857         1.738118
 H         2.807500        -0.469380         3.364257
 H         2.477999        -2.130979         2.781034
 H         4.699016        -1.257555         1.802009
 H         4.570451         1.024121         0.471055
 H         4.338207        -1.281150        -0.715346
