19
Iteration:  4217charge 0 multiplicity 1
 C         0.299048         0.358888        -0.352875
 C         1.448518        -0.241033         0.403272
 C         1.247832        -0.985093         1.784996
 C         2.607508        -1.135727         2.434261
 C         3.803564        -0.788727         1.479969
 C         3.568676         0.409240         0.537922
 O         2.255356         0.925613         0.489044
 C         3.543240        -0.994246        -0.017464
 O         2.157040        -1.230479        -0.391325
 H        -0.272458         0.948957         0.347980
 H         0.738854         1.098915        -1.155478
 H        -0.421264        -0.352245        -0.742356
 H         0.607415        -0.319122         2.260040
 H         0.809420        -2.022053         1.710986
 H         2.524505        -0.490223         3.308633
 H         2.695036        -2.090751         3.052235
 H         4.840339        -0.826948         1.850087
 H         4.495133         0.959999         0.350237
 H         4.216973        -1.572144        -0.705437
