19
Iteration:  2488
 C         0.238125         0.151248        -0.412511
 C         1.424088        -0.170177         0.425594
 C         1.294907        -0.790602         1.813060
 C         2.618967        -1.521145         2.215707
 C         3.814641        -0.830418         1.496357
 C         3.492839         0.519926         0.712055
 O         2.233348         1.002032         0.516989
 C         3.587114        -0.810819        -0.029713
 O         2.222146        -1.199947        -0.333092
 H        -0.611052         0.734503         0.015741
 H         0.411463         0.875248        -1.319911
 H        -0.124391        -0.849540        -0.604888
 H         1.074738        -0.013906         2.566123
 H         0.441361        -1.502760         1.925981
 H         2.858659        -1.315491         3.207594
 H         2.716551        -2.671678         2.128383
 H         4.779386        -1.019838         1.944144
 H         4.316989         1.233934         0.417223
 H         4.254582        -0.936601        -0.781168
