19
Iteration:   278charge 0 multiplicity 1
 C         0.066467         0.153664        -0.197153
 C         1.363100        -0.274585         0.328277
 C         1.235276        -1.198016         1.544439
 C         2.583908        -1.103565         2.361387
 C         3.859870        -0.979029         1.446700
 C         3.581328         0.459785         0.769079
 O         2.253661         0.839694         0.802336
 C         3.662382        -0.726324        -0.082430
 O         2.334307        -0.880249        -0.631379
 H        -0.275936         0.851302         0.570677
 H        -0.045714         0.655964        -1.226831
 H        -0.695732        -0.691553        -0.263089
 H         0.502765        -0.783593         2.273988
 H         1.073791        -2.183026         1.081635
 H         2.608611        -0.189482         2.857739
 H         2.620687        -2.030212         2.992438
 H         4.832212        -1.267688         1.875045
 H         4.267268         1.264757         0.733692
 H         4.537791        -1.015580        -0.591889
