19
Iteration:  4781charge 0 multiplicity 1
 C         0.173526         0.286869        -0.309748
 C         1.457770        -0.153839         0.386451
 C         1.303188        -0.809944         1.864225
 C         2.584639        -1.273929         2.423396
 C         3.690427        -0.833191         1.512311
 C         3.566394         0.376561         0.623334
 O         2.317693         0.946227         0.430971
 C         3.614790        -1.034934        -0.031665
 O         2.246740        -1.174037        -0.513089
 H        -0.402239         0.659979         0.573619
 H         0.206293         1.001629        -1.099433
 H        -0.354501        -0.626398        -0.666933
 H         0.638031        -0.164477         2.544132
 H         0.683784        -1.698686         1.741363
 H         2.708032        -0.746195         3.354004
 H         2.684569        -2.346415         2.601314
 H         4.594891        -0.973302         2.097292
 H         4.316891         1.136000         0.398932
 H         4.265965        -1.347906        -0.774797
