19
Iteration:  4762
 C         0.041846         0.213758        -0.274790
 C         1.436732        -0.249039         0.338407
 C         1.203869        -0.754688         1.729266
 C         2.592509        -1.235922         2.409070
 C         3.789898        -0.829271         1.498938
 C         3.696792         0.380622         0.616358
 O         2.343357         0.899471         0.561644
 C         3.563342        -0.957736         0.000566
 O         2.244688        -1.165290        -0.512746
 H        -0.388268         0.891760         0.438403
 H         0.398899         0.817629        -1.147644
 H        -0.435941        -0.706887        -0.576270
 H         0.881420         0.232179         2.265159
 H         0.418631        -1.373478         1.959496
 H         2.683423        -0.870100         3.465250
 H         2.530489        -2.243479         2.406948
 H         4.850603        -1.118035         1.616737
 H         4.473547         1.182148         0.506233
 H         4.337548        -1.434891        -0.451245
