19
Iteration:  3330
 C         0.157619         0.129124        -0.304090
 C         1.436859        -0.195514         0.359670
 C         1.202245        -0.946363         1.788003
 C         2.647081        -1.245943         2.410197
 C         3.759960        -0.842373         1.507866
 C         3.620361         0.481642         0.565752
 O         2.350947         0.996921         0.499447
 C         3.578337        -0.949167         0.011756
 O         2.219897        -1.061767        -0.439025
 H        -0.435410         0.893329         0.291374
 H         0.086446         0.476263        -1.302455
 H        -0.420448        -0.813017        -0.376133
 H         0.571049        -0.377271         2.412345
 H         0.639111        -1.901054         1.503613
 H         2.818308        -0.631680         3.323468
 H         2.537203        -2.288954         2.628493
 H         4.632326        -1.313707         1.945011
 H         4.429347         1.239124         0.380252
 H         4.242269        -1.471918        -0.760091
