19
Iteration:  2842
 C         0.142176         0.223807        -0.166065
 C         1.433229        -0.225786         0.432659
 C         1.264193        -1.112759         1.576363
 C         2.532648        -1.040608         2.413306
 C         3.737467        -0.830180         1.495968
 C         3.616319         0.362210         0.634545
 O         2.371911         0.918416         0.567265
 C         3.615940        -0.895489        -0.029443
 O         2.218897        -1.083510        -0.531633
 H        -0.596341         0.628359         0.527405
 H         0.337942         1.086945        -0.945367
 H        -0.398498        -0.635102        -0.604586
 H         0.451171        -1.039662         2.313983
 H         1.126214        -2.055862         1.152804
 H         2.464670        -0.163242         3.139398
 H         2.832266        -1.908658         3.048219
 H         4.692899        -1.049990         2.071990
 H         4.364390         1.114099         0.463977
 H         4.229382        -1.167784        -0.945088
