19
Iteration:  1018charge 0 multiplicity 1
 C         0.084479         0.251399        -0.220477
 C         1.442001        -0.314929         0.317567
 C         1.348223        -1.197038         1.598960
 C         2.615341        -1.285087         2.453100
 C         3.716104        -0.827353         1.502942
 C         3.565789         0.521242         0.706255
 O         2.176788         0.904610         0.654852
 C         3.589313        -0.824950         0.000829
 O         2.369275        -0.919292        -0.639015
 H        -0.202979         0.949538         0.559854
 H         0.384066         0.896153        -1.057150
 H        -0.724422        -0.498276        -0.324181
 H         0.554524        -0.691147         2.243191
 H         0.987208        -2.289436         1.284799
 H         2.604279        -0.740025         3.412530
 H         2.884653        -2.378717         2.558004
 H         4.750807        -1.034527         1.932029
 H         4.311773         1.226418         0.503221
 H         4.434744        -1.136759        -0.597319
