19
Iteration:  1993
 C         0.222565        -0.016848        -0.391771
 C         1.437942        -0.140719         0.439307
 C         1.191292        -0.881763         1.763029
 C         2.614236        -1.439739         2.237804
 C         3.798469        -0.903113         1.395597
 C         3.614746         0.447668         0.745484
 O         2.240046         1.007751         0.660597
 C         3.610699        -0.716251        -0.042768
 O         2.207073        -0.998559        -0.432407
 H        -0.431758         0.689057         0.018222
 H         0.468464         0.380037        -1.396483
 H        -0.095417        -0.982787        -0.482133
 H         0.828985        -0.366266         2.646577
 H         0.547190        -1.820079         1.434504
 H         2.681397        -0.975410         3.191171
 H         2.527317        -2.486549         2.481371
 H         4.800540        -1.060540         1.917433
 H         4.371365         1.241395         0.709750
 H         4.323542        -1.003815        -0.844068
