19
Iteration:  1650
 C         0.121095         0.040101        -0.295948
 C         1.461445        -0.132859         0.348098
 C         1.242013        -1.021949         1.661034
 C         2.668689        -1.236623         2.464965
 C         3.748912        -0.992605         1.443080
 C         3.616171         0.446577         0.798289
 O         2.276358         0.948202         0.671732
 C         3.577775        -0.822396        -0.107924
 O         2.251600        -0.913262        -0.572143
 H        -0.656378         0.697885         0.047344
 H         0.289490         0.456823        -1.334769
 H        -0.320082        -0.938369        -0.315805
 H         0.416491        -0.610538         2.230952
 H         0.881738        -1.985507         1.377569
 H         2.692353        -0.379874         3.151768
 H         2.663752        -2.292693         2.922454
 H         4.831147        -1.234861         1.739112
 H         4.310299         1.306790         0.757521
 H         4.271326        -0.991247        -0.823578
