19
Iteration:  4198
 C         0.177793         0.247501        -0.349819
 C         1.387665        -0.190900         0.408723
 C         1.139645        -0.880099         1.691461
 C         2.640895        -1.107079         2.347852
 C         3.773172        -0.745112         1.482644
 C         3.682842         0.380998         0.522421
 O         2.374656         0.937900         0.614198
 C         3.551601        -1.045602         0.002136
 O         2.200610        -1.223628        -0.337319
 H        -0.438071         0.954733         0.188930
 H         0.365592         0.691832        -1.343018
 H        -0.516613        -0.572704        -0.543194
 H         0.602313        -0.460381         2.520039
 H         0.692705        -1.904553         1.328982
 H         2.805027        -0.650099         3.288157
 H         2.685632        -2.157811         2.652240
 H         4.744481        -1.039458         1.849234
 H         4.417007         1.116557         0.134190
 H         4.254011        -1.381335        -0.680387
