19
Iteration:  3459charge 0 multiplicity 1
 C         0.167744         0.122068        -0.257999
 C         1.487461        -0.260301         0.350354
 C         1.259605        -0.829171         1.773647
 C         2.589899        -1.146368         2.421391
 C         3.751705        -0.913127         1.423253
 C         3.602386         0.428225         0.689627
 O         2.273014         0.904767         0.560325
 C         3.630400        -0.885908        -0.054946
 O         2.227468        -1.092929        -0.524513
 H        -0.298767         1.054094         0.131548
 H         0.334998         0.251114        -1.279480
 H        -0.682446        -0.558219        -0.108792
 H         0.585921        -0.064855         2.289700
 H         0.686069        -1.776951         1.631424
 H         2.653764        -0.484187         3.274270
 H         2.546039        -2.116642         2.907987
 H         4.692058        -1.323200         1.743112
 H         4.370229         1.121670         0.591688
 H         4.295638        -1.335355        -0.818484
