19
Iteration:  4951charge 0 multiplicity 1
 C         0.204485         0.176427        -0.406128
 C         1.435776        -0.269641         0.372986
 C         1.270461        -0.774680         1.772579
 C         2.721858        -1.202296         2.421684
 C         3.803962        -0.916007         1.439669
 C         3.639990         0.421164         0.708981
 O         2.301150         1.022048         0.583263
 C         3.478937        -0.991518        -0.028398
 O         2.115112        -1.158508        -0.468145
 H        -0.466228         0.969364         0.081681
 H         0.411127         0.610695        -1.367574
 H        -0.411530        -0.769165        -0.614561
 H         0.669176        -0.101758         2.336669
 H         0.614552        -1.746548         1.761474
 H         2.864891        -0.620480         3.287315
 H         2.660680        -2.224966         2.679914
 H         4.739953        -1.149546         1.861160
 H         4.439463         1.172935         0.551217
 H         4.208617        -1.336163        -0.711109
