19
Iteration:  3416
 C         0.181794         0.155761        -0.397145
 C         1.434376        -0.214436         0.429175
 C         1.311818        -0.796391         1.788332
 C         2.643915        -1.375575         2.264302
 C         3.755715        -0.764525         1.502021
 C         3.605773         0.516874         0.623483
 O         2.263470         0.984269         0.432012
 C         3.479205        -0.971131         0.064230
 O         2.238156        -1.151840        -0.294144
 H        -0.289701         0.831147         0.374902
 H         0.639291         0.636071        -1.188786
 H        -0.394638        -0.767174        -0.617967
 H         0.981107         0.057187         2.493997
 H         0.438491        -1.557481         1.774992
 H         2.826022        -1.478247         3.339014
 H         2.628578        -2.429275         1.955974
 H         4.763791        -0.997392         1.799096
 H         4.248854         1.266440         0.226147
 H         4.236379        -1.539637        -0.569203
