19
Iteration:  4638
 C         0.179062         0.154730        -0.361055
 C         1.421178        -0.104214         0.401124
 C         1.318832        -0.820735         1.738386
 C         2.646660        -1.236769         2.527901
 C         3.715539        -0.932150         1.495398
 C         3.653308         0.372631         0.562156
 O         2.329458         1.034407         0.471603
 C         3.505629        -1.027413         0.032184
 O         2.140303        -1.072919        -0.496692
 H        -0.478419         0.805384         0.267478
 H         0.512772         0.494370        -1.339487
 H        -0.290592        -0.846790        -0.455967
 H         0.608707        -0.384381         2.465651
 H         0.759088        -1.759793         1.526794
 H         2.921541        -0.688752         3.409186
 H         2.564940        -2.273071         2.779653
 H         4.767865        -0.995799         1.808697
 H         4.516680         0.977051         0.788754
 H         4.372369        -1.633318        -0.526044
