19
Iteration:  4446
 C         0.159818         0.242012        -0.366725
 C         1.425546        -0.118951         0.397801
 C         1.215817        -0.875748         1.829890
 C         2.601568        -1.337769         2.358074
 C         3.852823        -0.841467         1.548052
 C         3.670514         0.452937         0.504857
 O         2.328045         1.038665         0.411742
 C         3.535992        -0.993472         0.010887
 O         2.208323        -1.221998        -0.264078
 H        -0.571438         0.863721         0.219518
 H         0.367655         0.776937        -1.254224
 H        -0.468959        -0.598398        -0.737666
 H         0.471823        -0.166035         2.413858
 H         0.411913        -1.611004         1.491789
 H         2.807389        -1.018735         3.354073
 H         2.571111        -2.450828         2.354677
 H         4.800173        -1.035277         2.130930
 H         4.345336         1.268243         0.209405
 H         4.202067        -1.482298        -0.850218
