19
Iteration:  3538charge 0 multiplicity 1
 C         0.129278         0.243300        -0.275530
 C         1.416736        -0.295985         0.400064
 C         1.227006        -0.966935         1.744442
 C         2.624370        -1.016045         2.456416
 C         3.788642        -0.879549         1.481018
 C         3.627153         0.425812         0.581987
 O         2.310265         0.882817         0.589594
 C         3.591476        -0.967606        -0.014433
 O         2.223352        -1.118520        -0.582299
 H        -0.327397         0.788134         0.547698
 H         0.519159         0.965085        -0.993863
 H        -0.467841        -0.563761        -0.733131
 H         0.396683        -0.523556         2.281240
 H         0.979730        -2.044672         1.413910
 H         2.601342        -0.259347         3.207648
 H         2.639078        -1.984469         2.933575
 H         4.736534        -1.044401         2.053295
 H         4.374397         1.267757         0.539214
 H         4.213219        -1.407232        -0.775220
