19
Iteration:  3206
 C         0.181794         0.154421        -0.262557
 C         1.484709        -0.244785         0.369358
 C         1.214691        -0.762668         1.777699
 C         2.611589        -1.289336         2.416395
 C         3.729120        -0.823217         1.476083
 C         3.593968         0.439397         0.593562
 O         2.278887         0.936196         0.536861
 C         3.555463        -0.930468        -0.022345
 O         2.306714        -1.150563        -0.491850
 H        -0.535910         0.432824         0.484258
 H         0.256553         0.975573        -1.013914
 H        -0.231885        -0.694733        -0.797913
 H         0.636033         0.062155         2.255477
 H         0.422923        -1.482823         1.694790
 H         2.629092        -0.968289         3.477776
 H         2.729115        -2.349349         2.493047
 H         4.751790        -1.156475         1.765281
 H         4.178060         1.285996         0.463802
 H         4.401122        -1.254238        -0.639832
