19
Iteration:  4311
 C         0.206050         0.296517        -0.397833
 C         1.439283        -0.284517         0.369537
 C         1.344063        -0.842636         1.776277
 C         2.644791        -1.148793         2.467515
 C         3.783691        -0.888830         1.480218
 C         3.562069         0.352083         0.584766
 O         2.238195         0.929473         0.467042
 C         3.517428        -1.048760         0.085208
 O         2.195484        -1.103938        -0.454878
 H        -0.069988         1.070598         0.308255
 H         0.566771         0.590485        -1.354170
 H        -0.552369        -0.491133        -0.381984
 H         0.691488        -0.133473         2.498691
 H         0.725181        -1.702750         1.732759
 H         2.840329        -0.598433         3.425600
 H         2.492355        -2.119413         2.875160
 H         4.845665        -1.037470         1.762130
 H         4.310537         1.103662         0.353269
 H         4.296519        -1.174522        -0.723995
