19
Iteration:  1625
 C         0.164713         0.076660        -0.329582
 C         1.444225        -0.235007         0.365508
 C         1.250339        -0.949456         1.732099
 C         2.661288        -1.385882         2.304921
 C         3.738580        -0.857355         1.465710
 C         3.569598         0.476058         0.750120
 O         2.250229         1.005804         0.654303
 C         3.578250        -0.798415        -0.085206
 O         2.297527        -1.023990        -0.475701
 H        -0.438280         0.885289         0.103344
 H         0.412786         0.608407        -1.230027
 H        -0.531772        -0.755626        -0.438021
 H         0.624501        -0.257202         2.460651
 H         0.602428        -1.825091         1.645896
 H         2.646037        -0.868277         3.275093
 H         2.682194        -2.487845         2.343090
 H         4.732498        -1.024077         1.782312
 H         4.278824         1.268067         0.625175
 H         4.403481        -1.224328        -0.781903
