19
Iteration:   825
 C         0.134327         0.039129        -0.378906
 C         1.452430        -0.241908         0.390272
 C         1.228549        -1.024989         1.641381
 C         2.633029        -1.424853         2.270206
 C         3.770553        -0.789186         1.483683
 C         3.605918         0.588000         0.731390
 O         2.242869         0.944326         0.829125
 C         3.616752        -0.763603        -0.056740
 O         2.253799        -0.950485        -0.534395
 H        -0.443804         0.835706         0.108538
 H         0.476742         0.418070        -1.378039
 H        -0.318868        -0.988803        -0.333911
 H         0.607742        -0.545195         2.426824
 H         0.603659        -1.809783         1.383217
 H         2.670331        -1.127445         3.382287
 H         2.644182        -2.602232         2.240809
 H         4.822716        -0.967810         1.860567
 H         4.409304         1.198876         0.478510
 H         4.339744        -0.950124        -0.769411
