19
Iteration:  4342
 C         0.205131         0.327880        -0.376082
 C         1.364916        -0.268186         0.375217
 C         1.222219        -0.863679         1.818724
 C         2.553017        -1.228105         2.381353
 C         3.765805        -0.736010         1.477193
 C         3.665097         0.439560         0.478585
 O         2.353216         0.898934         0.537405
 C         3.593121        -0.991289        -0.031762
 O         2.185720        -1.262753        -0.311819
 H        -0.213776         1.156060         0.276938
 H         0.488331         0.657472        -1.331948
 H        -0.525177        -0.530854        -0.376141
 H         0.793601        -0.010655         2.423363
 H         0.546358        -1.701675         1.624309
 H         2.532355        -0.863560         3.411054
 H         2.726779        -2.332988         2.465517
 H         4.806504        -0.766848         1.889802
 H         4.450727         1.201087         0.466362
 H         4.396072        -1.215505        -0.852112
