19
Iteration:  2134
 C         0.185574         0.246266        -0.364139
 C         1.371613        -0.279708         0.447783
 C         1.246676        -1.116470         1.655126
 C         2.593172        -1.033959         2.394491
 C         3.874822        -0.960513         1.446887
 C         3.601295         0.421151         0.724953
 O         2.204634         0.827250         0.792801
 C         3.575847        -0.786033        -0.148102
 O         2.222803        -1.012713        -0.579269
 H        -0.139837         1.090364         0.182982
 H         0.729561         0.680704        -1.252407
 H        -0.340528        -0.563715        -0.707312
 H         0.559683        -0.995672         2.499471
 H         1.112260        -2.090027         1.197080
 H         2.672804        -0.134155         2.888359
 H         2.719246        -1.889033         3.207766
 H         4.913207        -1.281425         1.861652
 H         4.142322         1.312028         0.782172
 H         4.453300        -1.110310        -0.873680
