19
Iteration:  2774charge 0 multiplicity 1
 C         0.198126         0.160176        -0.310078
 C         1.454945        -0.239127         0.409456
 C         1.215392        -0.948921         1.736710
 C         2.671045        -1.222598         2.355816
 C         3.738874        -0.864890         1.402202
 C         3.577084         0.476745         0.695936
 O         2.247486         0.996830         0.632524
 C         3.593607        -0.916652        -0.054673
 O         2.240843        -1.110300        -0.500302
 H        -0.481565         0.925974         0.215692
 H         0.664736         0.601264        -1.217372
 H        -0.482451        -0.771266        -0.446458
 H         0.502671        -0.441481         2.366515
 H         0.666311        -1.828894         1.446887
 H         2.745962        -0.610054         3.257361
 H         2.800806        -2.319394         2.772918
 H         4.690446        -1.178346         1.712719
 H         4.351643         1.293470         0.637610
 H         4.396006        -1.247114        -0.603001
