19
Iteration:     8charge 0 multiplicity 1
 C         0.111303         0.166232        -0.281405
 C         1.466605        -0.273914         0.403657
 C         1.229713        -1.025854         1.679009
 C         2.695809        -1.350070         2.285208
 C         3.767763        -0.859834         1.465177
 C         3.556777         0.459125         0.776758
 O         2.252076         0.953227         0.721317
 C         3.593535        -0.736727        -0.101711
 O         2.309809        -0.994031        -0.516752
 H        -0.609564         0.628145         0.346026
 H        -0.001181         0.649954        -1.299401
 H        -0.495674        -0.685657        -0.641731
 H         0.568410        -0.437381         2.325271
 H         0.728666        -1.966731         1.320051
 H         2.723447        -0.761382         3.255632
 H         2.749452        -2.426931         2.380616
 H         4.883515        -1.182758         1.708740
 H         4.189026         1.323707         0.614435
 H         4.279411        -1.086502        -0.911697
