19
Iteration:  4881charge 0 multiplicity 1
 C         0.141572         0.227149        -0.289680
 C         1.480608        -0.106680         0.399654
 C         1.305244        -0.903148         1.706169
 C         2.567888        -1.222253         2.456023
 C         3.828540        -0.856079         1.494739
 C         3.609276         0.360377         0.554241
 O         2.272295         0.952831         0.490647
 C         3.611928        -1.036639         0.008168
 O         2.166332        -1.097005        -0.426468
 H        -0.216317         1.146607         0.112382
 H         0.309232         0.488309        -1.370914
 H        -0.537597        -0.607596        -0.167236
 H         0.531184        -0.411261         2.439051
 H         0.782963        -1.710095         1.342096
 H         2.579017        -0.499992         3.332578
 H         2.573258        -2.245027         2.848095
 H         4.903853        -0.960458         1.819421
 H         4.396317         1.138499         0.477718
 H         4.177868        -1.641896        -0.729704
