19
Iteration:  4729charge 0 multiplicity 1
 C         0.199178         0.161511        -0.390573
 C         1.419222        -0.037145         0.471450
 C         1.236661        -0.797729         1.842643
 C         2.603246        -1.342384         2.426459
 C         3.711993        -0.861830         1.396663
 C         3.638052         0.384960         0.618860
 O         2.351067         1.014890         0.517445
 C         3.581803        -0.955216        -0.075939
 O         2.190421        -1.203454        -0.413906
 H        -0.495107         0.931300        -0.061235
 H         0.587291         0.255645        -1.422852
 H        -0.424288        -0.745637        -0.361134
 H         0.695244        -0.006042         2.484858
 H         0.587762        -1.575279         1.839225
 H         2.652682        -0.892580         3.461812
 H         2.602324        -2.378137         2.487963
 H         4.778289        -1.068545         1.593158
 H         4.414944         1.165554         0.562831
 H         4.313691        -1.350337        -0.632218
