19
Iteration:   989charge 0 multiplicity 1
 C         0.216328         0.207482        -0.319602
 C         1.443546        -0.238787         0.418040
 C         1.319870        -1.242435         1.541110
 C         2.560220        -1.194651         2.276107
 C         3.818729        -0.854235         1.382558
 C         3.564969         0.509701         0.803656
 O         2.179373         0.928936         0.805704
 C         3.597034        -0.770972        -0.150878
 O         2.252504        -1.046187        -0.416609
 H        -0.302171         0.991050         0.304183
 H         0.508909         0.822362        -1.180435
 H        -0.394464        -0.681177        -0.614717
 H         0.451110        -1.047562         2.228376
 H         0.886335        -2.124399         1.207722
 H         2.476094        -0.421528         3.052133
 H         2.842478        -2.103678         2.782270
 H         4.741115        -0.930742         1.980416
 H         4.366644         1.290958         0.737194
 H         4.321147        -0.969978        -1.043048
