19
Iteration:  4942charge 0 multiplicity 1
 C         0.233791         0.175258        -0.374786
 C         1.445621        -0.236611         0.368873
 C         1.336830        -0.784742         1.796036
 C         2.658901        -1.137754         2.354177
 C         3.813357        -0.949406         1.445294
 C         3.551824         0.391345         0.773960
 O         2.245448         0.975451         0.527789
 C         3.486120        -1.005729         0.001120
 O         2.168112        -1.127337        -0.475379
 H        -0.165261         0.963443         0.356684
 H         0.495454         0.568239        -1.351359
 H        -0.611364        -0.551990        -0.550607
 H         0.910909        -0.064021         2.399787
 H         0.666055        -1.790857         1.711526
 H         2.720568        -0.513731         3.208746
 H         2.700872        -2.197215         2.735114
 H         4.807455        -1.310161         1.637722
 H         4.377588         1.040228         0.377145
 H         4.217185        -1.200903        -0.655817
