19
Iteration:  1688
 C         0.144560         0.316459        -0.227127
 C         1.458745        -0.293773         0.367868
 C         1.244393        -1.225986         1.564212
 C         2.547371        -1.117083         2.444259
 C         3.801703        -0.751224         1.472264
 C         3.584653         0.438861         0.700744
 O         2.268388         0.858571         0.729265
 C         3.566599        -0.853447        -0.071758
 O         2.291612        -1.045157        -0.589768
 H        -0.267440         0.910962         0.627160
 H         0.365462         0.923622        -1.104334
 H        -0.512348        -0.572319        -0.546932
 H         0.335127        -0.989938         2.146398
 H         1.170390        -2.238108         1.078915
 H         2.570049        -0.304469         3.214630
 H         2.833447        -1.945906         3.040974
 H         4.805775        -0.948381         1.729628
 H         4.246253         1.249322         0.482528
 H         4.374289        -1.323125        -0.821424
