19
Iteration:   666charge 0 multiplicity 1
 C         0.099682         0.113150        -0.259995
 C         1.494314        -0.191179         0.359165
 C         1.229658        -1.016480         1.673912
 C         2.631036        -1.576880         2.104421
 C         3.744580        -0.647200         1.542442
 C         3.567616         0.624799         0.763380
 O         2.211502         0.914175         0.599614
 C         3.664724        -0.741974         0.033905
 O         2.303919        -1.076837        -0.435899
 H        -0.551303         0.802483         0.326470
 H         0.183503         0.767765        -1.158566
 H        -0.560013        -0.766740        -0.327868
 H         0.868788        -0.338192         2.384624
 H         0.664676        -1.905918         1.486909
 H         2.732552        -1.822386         3.173849
 H         2.756623        -2.546331         1.560527
 H         4.829745        -0.692862         2.030266
 H         4.244345         1.390277         0.931920
 H         4.463698        -1.107148        -0.549002
