19
Iteration:  1768charge 0 multiplicity 1
 C         0.115900        -0.044762        -0.434885
 C         1.444028        -0.176006         0.351857
 C         1.246084        -0.904630         1.747947
 C         2.627171        -1.425068         2.305334
 C         3.748759        -0.909404         1.428180
 C         3.611688         0.441589         0.754879
 O         2.241060         1.059448         0.699006
 C         3.614717        -0.812094        -0.062291
 O         2.287671        -0.940814        -0.458391
 H        -0.358012         0.599904         0.311331
 H         0.292040         0.538698        -1.412444
 H        -0.386981        -0.989911        -0.392062
 H         0.903845        -0.037399         2.563707
 H         0.368908        -1.548840         1.754998
 H         2.826187        -0.988278         3.289651
 H         2.732338        -2.534162         2.248436
 H         4.772403        -1.220113         1.843452
 H         4.387259         1.272017         0.813882
 H         4.160575        -1.073842        -0.878574
