19
Iteration:  3167
 C         0.220085         0.137897        -0.535006
 C         1.476359        -0.132985         0.478554
 C         1.249669        -0.758385         1.859578
 C         2.681448        -1.467976         2.276135
 C         3.841347        -0.810275         1.476127
 C         3.543129         0.513773         0.586666
 O         2.218005         0.957824         0.515240
 C         3.497132        -0.868738         0.018892
 O         2.203874        -1.185704        -0.228197
 H        -0.596563         0.762307        -0.112984
 H         0.621045         0.753421        -1.420479
 H        -0.109573        -0.836502        -0.901597
 H         1.205643         0.033134         2.622499
 H         0.304515        -1.433933         1.732507
 H         2.933413        -1.554423         3.365841
 H         2.537534        -2.486074         1.776044
 H         4.842377        -1.024337         1.761718
 H         4.402639         1.310112         0.470123
 H         4.052223        -1.292269        -0.721499
