19
Iteration:    54charge 0 multiplicity 1
 C         0.208492         0.165177        -0.250710
 C         1.462858        -0.221821         0.358924
 C         1.267574        -1.256775         1.675004
 C         2.615868        -1.210820         2.520947
 C         3.739519        -0.832954         1.442469
 C         3.608663         0.440139         0.754149
 O         2.268959         0.958239         0.724138
 C         3.518736        -0.834694        -0.096733
 O         2.239306        -0.861924        -0.674790
 H        -0.490334         0.526171         0.433899
 H         0.242474         0.764193        -1.129124
 H        -0.224572        -0.654259        -0.732982
 H         0.345874        -1.028268         2.214764
 H         1.217383        -2.293222         1.273981
 H         2.591056        -0.447698         3.338298
 H         2.832259        -2.200151         2.809532
 H         4.756347        -1.240923         1.571307
 H         4.315302         1.170371         0.440336
 H         4.278382        -1.160780        -0.771667
