19
Iteration:  1158
 C         0.072431         0.028029        -0.210961
 C         1.472914        -0.200128         0.319835
 C         1.280797        -1.005058         1.642272
 C         2.594713        -1.442672         2.373309
 C         3.715878        -0.852364         1.448875
 C         3.582265         0.495355         0.811136
 O         2.284982         1.082869         0.581073
 C         3.639896        -0.834497        -0.020625
 O         2.310715        -0.933593        -0.515920
 H        -0.681067         0.542949         0.368810
 H         0.095422         0.542802        -1.207834
 H        -0.373831        -1.005787        -0.283512
 H         0.643481        -0.405485         2.298363
 H         0.682075        -1.851909         1.257670
 H         2.501209        -0.852691         3.310837
 H         2.808421        -2.542425         2.314275
 H         4.792431        -1.167917         1.762564
 H         4.335613         1.259764         0.614296
 H         4.421113        -1.214509        -0.758868
