19
Iteration:   997
 C         0.197250         0.279857        -0.273134
 C         1.450312        -0.233336         0.428122
 C         1.239799        -1.246611         1.592628
 C         2.562256        -1.259391         2.348908
 C         3.832893        -0.828144         1.409978
 C         3.546844         0.502036         0.800396
 O         2.200267         0.923905         0.707142
 C         3.616486        -0.732601        -0.126325
 O         2.272027        -1.083180        -0.512164
 H        -0.399594         0.891639         0.403826
 H         0.539451         0.781349        -1.202020
 H        -0.443307        -0.637688        -0.388863
 H         0.399419        -0.961750         2.337146
 H         1.225377        -2.217687         0.915928
 H         2.423020        -0.408017         2.988950
 H         2.997960        -2.105287         2.808165
 H         4.867066        -0.986162         1.896428
 H         4.161808         1.343594         0.902335
 H         4.376451        -0.990600        -0.862211
