19
Iteration:  4859charge 0 multiplicity 1
 C         0.153249         0.234823        -0.376407
 C         1.456417        -0.289616         0.386870
 C         1.252775        -0.879867         1.861264
 C         2.662930        -1.124464         2.469276
 C         3.691520        -0.927039         1.421509
 C         3.608009         0.383472         0.689951
 O         2.359698         0.941339         0.512461
 C         3.504825        -0.875828        -0.028379
 O         2.198104        -1.164366        -0.518836
 H        -0.205030         1.102776         0.132614
 H         0.468402         0.624955        -1.373993
 H        -0.556184        -0.580206        -0.425800
 H         0.553811        -0.069547         2.344985
 H         0.644324        -1.713789         1.776468
 H         2.833011        -0.471063         3.371889
 H         2.890693        -2.142489         2.745568
 H         4.735366        -1.240741         1.679705
 H         4.580481         0.916469         0.595144
 H         4.229084        -1.177733        -0.752459
