19
Iteration:   593charge 0 multiplicity 1
 C         0.132584         0.042549        -0.389156
 C         1.402932        -0.255364         0.344103
 C         1.204303        -0.963339         1.706714
 C         2.635118        -1.464552         2.293788
 C         3.857061        -0.837190         1.456162
 C         3.566628         0.536549         0.732576
 O         2.207433         0.960497         0.809449
 C         3.636659        -0.751607        -0.071412
 O         2.309834        -0.929421        -0.525361
 H        -0.643634         0.426750         0.276831
 H         0.232560         0.751133        -1.203846
 H        -0.217893        -0.920400        -0.700176
 H         0.635884        -0.244129         2.396053
 H         0.624048        -1.887544         1.430570
 H         2.770168        -1.244082         3.375524
 H         2.709140        -2.585965         2.314273
 H         4.825540        -0.971465         1.923843
 H         4.194433         1.371117         0.627623
 H         4.429287        -0.924996        -0.770963
