19
Iteration:  3315
 C         0.159744         0.221779        -0.285743
 C         1.449983        -0.272877         0.374470
 C         1.256651        -0.934999         1.702172
 C         2.605603        -1.106127         2.403392
 C         3.820685        -0.845964         1.444141
 C         3.620599         0.391299         0.701916
 O         2.244413         0.933429         0.571003
 C         3.555557        -0.938161        -0.038175
 O         2.214755        -1.165456        -0.485821
 H        -0.153488         1.074051         0.272930
 H         0.572046         0.566553        -1.282980
 H        -0.673168        -0.457470        -0.256393
 H         0.507649        -0.290796         2.383911
 H         0.861000        -1.923747         1.454149
 H         2.611967        -0.433212         3.265103
 H         2.762334        -2.146860         2.759857
 H         4.881208        -0.800267         1.757457
 H         4.395354         1.147409         0.414602
 H         4.317230        -1.266333        -0.675121
