19
Iteration:   839charge 0 multiplicity 1
 C         0.180853         0.039382        -0.441550
 C         1.422568        -0.194625         0.412840
 C         1.264854        -0.945609         1.749759
 C         2.639097        -1.433806         2.217254
 C         3.826945        -0.898564         1.401935
 C         3.527374         0.493937         0.796803
 O         2.174175         0.958614         0.773000
 C         3.578238        -0.689434        -0.049040
 O         2.322460        -0.958618        -0.466623
 H        -0.511498         0.744437         0.023362
 H         0.434835         0.218085        -1.470032
 H        -0.443424        -0.821709        -0.668346
 H         0.806979        -0.170702         2.355695
 H         0.618354        -1.927218         1.686776
 H         2.849391        -1.171378         3.285460
 H         2.772300        -2.519950         2.153952
 H         4.877553        -1.279598         1.665956
 H         4.048004         1.444746         0.892551
 H         4.379201        -1.018421        -0.790897
