19
Iteration:  2508
 C         0.177611         0.152569        -0.328324
 C         1.430535        -0.224102         0.380081
 C         1.260267        -0.920588         1.803155
 C         2.628805        -1.417708         2.284685
 C         3.726707        -0.758465         1.523028
 C         3.596965         0.493338         0.603174
 O         2.244436         1.012387         0.530392
 C         3.625298        -0.907563        -0.041300
 O         2.225969        -1.086992        -0.358938
 H        -0.231283         0.990601         0.239437
 H         0.497188         0.753748        -1.264485
 H        -0.449264        -0.683695        -0.630265
 H         0.732852        -0.346470         2.493398
 H         0.606937        -1.715020         1.501931
 H         2.820364        -1.351975         3.318878
 H         2.679968        -2.519785         2.014919
 H         4.768031        -0.876126         1.906637
 H         4.355236         1.313487         0.699256
 H         4.393457        -1.432808        -0.630053
