19
Iteration:   867
 C         0.189536         0.113469        -0.405361
 C         1.459722        -0.251760         0.419427
 C         1.330121        -0.917200         1.810877
 C         2.640221        -1.623947         2.224691
 C         3.755338        -0.833491         1.498671
 C         3.434906         0.565268         0.792827
 O         2.181929         0.972178         0.636563
 C         3.602739        -0.665530        -0.067448
 O         2.309844        -1.044557        -0.484960
 H        -0.445108         0.773741         0.200888
 H         0.629303         0.572447        -1.355636
 H        -0.330087        -0.782893        -0.893064
 H         1.018987        -0.060282         2.497743
 H         0.471499        -1.566247         1.904574
 H         2.941346        -1.568997         3.288967
 H         2.726250        -2.745815         1.966376
 H         4.846736        -0.847140         1.777676
 H         4.031961         1.444549         0.765490
 H         4.343855        -0.757258        -0.774343
