19
Iteration:  2098charge 0 multiplicity 1
 C         0.158125         0.074216        -0.319601
 C         1.426563        -0.199352         0.361193
 C         1.253840        -1.006905         1.677550
 C         2.644355        -1.264545         2.395204
 C         3.765254        -0.836273         1.534148
 C         3.629875         0.471143         0.706999
 O         2.291031         0.940369         0.718282
 C         3.560476        -0.890223        -0.079412
 O         2.238184        -0.941845        -0.603762
 H        -0.558108         0.692751         0.275614
 H         0.429227         0.618292        -1.259068
 H        -0.500007        -0.818339        -0.559094
 H         0.463403        -0.601962         2.344694
 H         0.893489        -1.918430         1.306270
 H         2.645402        -0.719285         3.369884
 H         2.662912        -2.335188         2.672471
 H         4.760864        -1.121632         1.876618
 H         4.297084         1.359944         0.648510
 H         4.237434        -1.357796        -0.737183
