19
Iteration:  1737
 C         0.147874         0.189786        -0.331566
 C         1.439886        -0.204957         0.396928
 C         1.275839        -1.096898         1.629951
 C         2.597470        -1.226986         2.390474
 C         3.750785        -0.771304         1.530424
 C         3.643343         0.424256         0.683262
 O         2.251395         0.878006         0.724969
 C         3.566640        -0.830991        -0.087930
 O         2.230526        -1.017274        -0.588454
 H        -0.382985         0.846735         0.340792
 H         0.428704         0.796121        -1.229608
 H        -0.317426        -0.762420        -0.532174
 H         0.674828        -0.580821         2.506500
 H         0.865141        -2.081424         1.378140
 H         2.718780        -0.742627         3.355766
 H         2.936895        -2.304911         2.603445
 H         4.745017        -1.085990         1.980662
 H         4.295877         1.339869         0.726487
 H         4.316011        -1.045769        -0.771357
