19
Iteration:  3547
 C         0.119163         0.227077        -0.259347
 C         1.472184        -0.213686         0.326740
 C         1.259364        -0.937368         1.704433
 C         2.583988        -1.032617         2.460329
 C         3.780744        -0.829563         1.523569
 C         3.643854         0.336405         0.592628
 O         2.256729         0.824700         0.618241
 C         3.551436        -0.898373        -0.096256
 O         2.264095        -1.119603        -0.512006
 H        -0.532017         0.747493         0.492889
 H         0.349555         0.899275        -1.022357
 H        -0.316263        -0.678568        -0.692461
 H         0.514258        -0.267283         2.211821
 H         0.762114        -1.899345         1.686792
 H         2.767462        -0.391490         3.331243
 H         2.676258        -2.061598         2.803932
 H         4.831122        -1.153594         1.620956
 H         4.429921         1.056209         0.541993
 H         4.313233        -1.415335        -0.618746
