19
Iteration:  4447
 C         0.169866         0.248082        -0.372450
 C         1.419348        -0.115307         0.405994
 C         1.225522        -0.874873         1.839322
 C         2.600774        -1.333163         2.358795
 C         3.853261        -0.838645         1.536548
 C         3.671313         0.449401         0.503392
 O         2.320258         1.030394         0.408014
 C         3.534798        -0.991827         0.021903
 O         2.208159        -1.214126        -0.266279
 H        -0.591931         0.878798         0.207993
 H         0.363259         0.764776        -1.260364
 H        -0.485997        -0.590303        -0.745728
 H         0.488469        -0.242772         2.398620
 H         0.402401        -1.626380         1.479092
 H         2.789577        -1.023459         3.345325
 H         2.599428        -2.476639         2.349793
 H         4.778410        -1.060286         2.154698
 H         4.342972         1.251259         0.197585
 H         4.224102        -1.514478        -0.827887
