19
Iteration:  1510
 C         0.119096         0.018781        -0.283217
 C         1.462022        -0.215762         0.369063
 C         1.274231        -0.952120         1.664796
 C         2.570706        -1.293427         2.372352
 C         3.771046        -0.944110         1.444138
 C         3.589538         0.472307         0.749819
 O         2.261378         0.976353         0.676557
 C         3.623865        -0.809989        -0.091788
 O         2.253540        -0.960804        -0.527072
 H        -0.576125         0.600587         0.369616
 H         0.383972         0.729830        -1.146634
 H        -0.385776        -0.888217        -0.569228
 H         0.676099        -0.300839         2.261162
 H         0.675630        -1.948106         1.661796
 H         2.691693        -0.770504         3.295494
 H         2.687095        -2.329510         2.472657
 H         4.864978        -1.063880         1.641516
 H         4.406944         1.140926         0.706207
 H         4.467580        -0.779677        -0.702096
