19
Iteration:  3571charge 0 multiplicity 1
 C         0.124440         0.063601        -0.332074
 C         1.463240        -0.230885         0.345309
 C         1.247175        -0.820427         1.792833
 C         2.592713        -1.226160         2.362866
 C         3.792476        -0.902271         1.465377
 C         3.624809         0.466510         0.614072
 O         2.332276         1.024305         0.595296
 C         3.551951        -0.946135         0.020742
 O         2.176010        -1.116448        -0.489262
 H        -0.497762         0.666483         0.331771
 H         0.490771         0.787327        -1.121726
 H        -0.322678        -0.841997        -0.752985
 H         0.649564        -0.115920         2.338213
 H         0.515462        -1.754271         1.748016
 H         2.923036        -0.675468         3.260657
 H         2.653942        -2.266762         2.655189
 H         4.877600        -0.938014         1.832783
 H         4.627196         1.071575         0.611550
 H         4.243524        -1.364753        -0.747130
