19
Iteration:   958charge 0 multiplicity 1
 C         0.179359         0.148733        -0.441114
 C         1.427888        -0.236361         0.372535
 C         1.284497        -1.149000         1.731723
 C         2.661043        -1.284348         2.434377
 C         3.812164        -0.816827         1.460716
 C         3.605175         0.534406         0.753315
 O         2.194630         0.842812         0.859625
 C         3.573244        -0.775860        -0.095073
 O         2.232207        -0.918089        -0.665659
 H        -0.607994         0.693547         0.138964
 H         0.464073         0.677377        -1.341196
 H        -0.299338        -0.694622        -0.926706
 H         0.651647        -0.493942         2.361804
 H         0.748605        -2.033988         1.557378
 H         2.703410        -0.848963         3.490432
 H         2.705130        -2.435773         2.667551
 H         4.755844        -1.117489         1.860911
 H         4.265871         1.441964         0.511658
 H         4.319790        -1.084348        -0.932909
