19
Iteration:  4708charge 0 multiplicity 1
 C         0.228102         0.234362        -0.427538
 C         1.484236        -0.196567         0.411946
 C         1.271079        -0.829174         1.847718
 C         2.655568        -1.341048         2.379568
 C         3.786684        -0.865180         1.497581
 C         3.615229         0.418816         0.610144
 O         2.292516         0.979814         0.432774
 C         3.482900        -0.952974        -0.005880
 O         2.135011        -1.116032        -0.342616
 H        -0.163856         1.149088        -0.012991
 H         0.673996         0.279587        -1.450065
 H        -0.573348        -0.517290        -0.481102
 H         0.674308        -0.182504         2.558460
 H         0.609924        -1.636970         1.719372
 H         2.849251        -0.948858         3.454495
 H         2.614996        -2.445202         2.400990
 H         4.787531        -0.998673         1.930668
 H         4.419722         1.166232         0.497296
 H         4.036743        -1.360229        -0.738026
