19
Iteration:  2656
 C         0.121072         0.135524        -0.318610
 C         1.409340        -0.144588         0.392615
 C         1.323576        -0.919849         1.755157
 C         2.604652        -1.350061         2.318160
 C         3.772169        -0.848942         1.541825
 C         3.623965         0.534060         0.629572
 O         2.288286         0.966689         0.610392
 C         3.569820        -0.904452        -0.000034
 O         2.244952        -1.107118        -0.526112
 H        -0.715813         0.523680         0.280222
 H         0.437686         0.835140        -1.068526
 H        -0.214660        -0.860008        -0.722481
 H         0.694413        -0.151101         2.337898
 H         0.564529        -1.719600         1.697509
 H         2.627558        -0.945288         3.353691
 H         2.620812        -2.387273         2.508210
 H         4.818785        -1.021814         1.727257
 H         4.334925         1.361700         0.410307
 H         4.265182        -1.462101        -0.612997
