19
Iteration:  4249
 C         0.151920         0.233324        -0.351629
 C         1.419091        -0.207094         0.360863
 C         1.265246        -0.892114         1.790945
 C         2.633439        -1.033826         2.497513
 C         3.772025        -0.904946         1.507810
 C         3.673802         0.316513         0.654986
 O         2.313772         0.934062         0.546843
 C         3.530952        -1.037886        -0.035136
 O         2.192763        -1.113833        -0.573254
 H        -0.513136         0.788610         0.286443
 H         0.149871         0.842976        -1.333641
 H        -0.429094        -0.647206        -0.610730
 H         0.690163        -0.230846         2.412840
 H         0.772860        -1.879076         1.736899
 H         2.793541        -0.197947         3.252028
 H         2.479868        -1.994152         3.082448
 H         4.826977        -1.059080         1.739898
 H         4.515163         1.000566         0.481980
 H         4.310333        -1.495713        -0.651102
