19
Iteration:  1063
 C         0.122785         0.045930        -0.366570
 C         1.455835        -0.215944         0.398567
 C         1.232241        -0.986309         1.750473
 C         2.609620        -1.438560         2.246154
 C         3.753277        -0.896766         1.426546
 C         3.559111         0.515054         0.744139
 O         2.237378         1.034791         0.678158
 C         3.680235        -0.711250        -0.095996
 O         2.312932        -0.986544        -0.404645
 H        -0.544572         0.704982         0.243795
 H         0.253395         0.644376        -1.276868
 H        -0.352099        -0.952830        -0.466842
 H         0.459444        -0.512280         2.512849
 H         0.679829        -1.983138         1.379363
 H         2.790420        -0.872535         3.191666
 H         2.448886        -2.539255         2.428937
 H         4.783077        -1.324742         1.559120
 H         4.328532         1.312125         0.801412
 H         4.452422        -1.039725        -0.899732
