19
Iteration:  4102charge 0 multiplicity 1
 C         0.223951         0.230571        -0.355192
 C         1.432519        -0.097138         0.459616
 C         1.178840        -0.755849         1.820805
 C         2.547275        -1.336434         2.262044
 C         3.834557        -0.711669         1.430910
 C         3.677849         0.401895         0.497272
 O         2.253566         0.977363         0.477819
 C         3.623668        -1.004580        -0.002752
 O         2.184149        -1.301386        -0.228556
 H        -0.407996         0.927631         0.198883
 H         0.339359         0.672396        -1.353694
 H        -0.330043        -0.702314        -0.446072
 H         0.516575        -0.085607         2.447072
 H         0.604000        -1.618275         1.598506
 H         2.718524        -1.391387         3.379968
 H         2.794482        -2.366826         2.042413
 H         4.820307        -0.861600         1.856787
 H         4.353051         1.306602         0.551120
 H         4.420542        -1.475402        -0.528236
