19
Iteration:  2045
 C         0.173601         0.205005        -0.274439
 C         1.414896        -0.256867         0.345290
 C         1.276984        -0.876361         1.792699
 C         2.620212        -1.524809         2.193132
 C         3.725807        -0.744909         1.549623
 C         3.496954         0.503470         0.738419
 O         2.186895         0.935065         0.481270
 C         3.669752        -0.813673         0.020617
 O         2.352750        -1.108880        -0.423101
 H        -0.507474         0.780144         0.354116
 H         0.478002         0.913293        -1.059893
 H        -0.368921        -0.665408        -0.666884
 H         1.332199         0.044103         2.472891
 H         0.428003        -1.520693         1.958546
 H         2.612720        -1.751347         3.233421
 H         2.570410        -2.558768         1.645693
 H         4.730416        -0.918937         2.020544
 H         4.188482         1.370074         0.530307
 H         4.420628        -0.871971        -0.719169
