19
Iteration:   827
 C         0.139623         0.030386        -0.389900
 C         1.442678        -0.238790         0.391059
 C         1.236785        -0.999361         1.660173
 C         2.637557        -1.436453         2.270958
 C         3.776719        -0.803120         1.450146
 C         3.598157         0.587416         0.739897
 O         2.239230         0.937475         0.827172
 C         3.609311        -0.758275        -0.041987
 O         2.261392        -0.949397        -0.524571
 H        -0.473483         0.833342         0.022796
 H         0.474123         0.439804        -1.343063
 H        -0.327030        -0.964735        -0.326828
 H         0.618376        -0.480647         2.413286
 H         0.575187        -1.855407         1.342403
 H         2.653676        -1.140584         3.369337
 H         2.656557        -2.566636         2.228146
 H         4.833343        -1.025931         1.870264
 H         4.361954         1.259510         0.487488
 H         4.384964        -0.936610        -0.778155
