19
Iteration:   212charge 0 multiplicity 1
 C         0.137237         0.250067        -0.394743
 C         1.465726        -0.253225         0.391171
 C         1.297513        -1.005656         1.748261
 C         2.680520        -1.556335         2.147143
 C         3.761862        -0.785986         1.481194
 C         3.475722         0.548707         0.780969
 O         2.159225         0.992702         0.617360
 C         3.668031        -0.709725        -0.009256
 O         2.276052        -1.146392        -0.372825
 H        -0.439412         0.562786         0.477033
 H         0.385150         1.071364        -1.139676
 H        -0.312494        -0.612690        -1.019173
 H         1.162531        -0.134238         2.441953
 H         0.546932        -1.812066         1.742354
 H         2.667492        -1.340208         3.182481
 H         2.846230        -2.659220         1.892304
 H         4.831608        -0.740553         1.875075
 H         4.171770         1.299223         0.658562
 H         4.389584        -1.085580        -0.670842
