19
Iteration:  4273charge 0 multiplicity 1
 C         0.168911         0.019365        -0.254770
 C         1.519153        -0.134721         0.396903
 C         1.174302        -0.824490         1.722681
 C         2.519864        -0.995023         2.373191
 C         3.724747        -0.919170         1.452931
 C         3.734006         0.379408         0.554709
 O         2.439526         0.952241         0.626605
 C         3.503669        -1.029713        -0.011284
 O         2.172774        -1.066291        -0.463851
 H        -0.531227         0.740642         0.184035
 H         0.063441         0.435673        -1.337970
 H        -0.409753        -0.906443        -0.342248
 H         0.480853        -0.265437         2.180283
 H         0.887189        -1.916008         1.458398
 H         2.697397        -0.298694         3.168803
 H         2.519042        -2.065716         2.851392
 H         4.605068        -1.463556         1.732424
 H         4.631625         0.979654         0.431042
 H         4.187402        -1.413581        -0.655927
