19
Iteration:  2826charge 0 multiplicity 1
 C         0.214409         0.246200        -0.263026
 C         1.502238        -0.202878         0.381010
 C         1.279653        -1.190723         1.644160
 C         2.573662        -0.986010         2.419998
 C         3.737780        -0.863393         1.451823
 C         3.666763         0.421719         0.626256
 O         2.276155         0.910416         0.701920
 C         3.505520        -0.948934        -0.117287
 O         2.194979        -1.053218        -0.491671
 H        -0.472841         0.466247         0.583374
 H         0.376508         0.960845        -0.998402
 H        -0.188098        -0.686096        -0.738214
 H         0.354570        -0.861387         2.099522
 H         1.124980        -2.282128         1.294938
 H         2.508410        -0.031674         2.884205
 H         2.593341        -1.754330         3.216726
 H         4.754637        -1.072083         1.659176
 H         4.414576         1.246457         0.628495
 H         4.292616        -1.468491        -0.624022
