19
Iteration:  1545charge 0 multiplicity 1
 C         0.092200        -0.026227        -0.333982
 C         1.485603        -0.208888         0.388688
 C         1.279196        -0.870277         1.796875
 C         2.624911        -1.455505         2.263745
 C         3.725648        -0.810092         1.441638
 C         3.607206         0.442678         0.761646
 O         2.271555         1.035317         0.639115
 C         3.621133        -0.847673         0.010909
 O         2.249461        -0.943485        -0.544103
 H        -0.595671         0.529589         0.296369
 H         0.311314         0.437407        -1.318693
 H        -0.286604        -1.012300        -0.644049
 H         1.058090         0.087540         2.285027
 H         0.342085        -1.577849         1.784183
 H         2.655369        -1.483469         3.313119
 H         2.552791        -2.477955         2.064393
 H         4.766252        -0.968053         1.894617
 H         4.375016         1.238654         0.663001
 H         4.314081        -0.978166        -0.726340
