19
Iteration:  1469charge 0 multiplicity 1
 C         0.210740         0.366405        -0.312776
 C         1.391668        -0.343419         0.376049
 C         1.301665        -1.211448         1.641872
 C         2.641709        -1.210741         2.383856
 C         3.800868        -0.698380         1.528506
 C         3.515534         0.508502         0.589953
 O         2.269411         0.897985         0.740597
 C         3.532163        -0.882248        -0.022317
 O         2.250595        -1.071886        -0.511981
 H        -0.321528         0.868014         0.455846
 H         0.728499         0.843815        -1.164410
 H        -0.489596        -0.333491        -0.744582
 H         0.431447        -0.968799         2.291003
 H         1.141014        -2.235718         1.112264
 H         2.557132        -0.599153         3.279476
 H         2.732778        -2.309986         2.616643
 H         4.877536        -1.074771         1.853346
 H         4.208580         1.304180         0.306495
 H         4.138011        -1.110917        -0.794807
