19
Iteration:  3436charge 0 multiplicity 1
 C         0.138373         0.130276        -0.356938
 C         1.406663        -0.131208         0.382200
 C         1.243384        -0.846441         1.780781
 C         2.649273        -1.342258         2.363761
 C         3.785093        -0.770205         1.531162
 C         3.623688         0.408381         0.566273
 O         2.323991         0.996740         0.519491
 C         3.622692        -0.923137         0.008533
 O         2.166311        -1.153808        -0.431951
 H        -0.479443         0.902221         0.147480
 H         0.369385         0.325476        -1.392101
 H        -0.483211        -0.755190        -0.211012
 H         0.744837        -0.066175         2.478374
 H         0.590790        -1.703787         1.725764
 H         2.677778        -1.040801         3.406905
 H         2.536802        -2.413245         2.497919
 H         4.803538        -0.859654         1.907353
 H         4.486925         1.100969         0.592178
 H         4.336416        -1.334971        -0.782174
