19
Iteration:  3687charge 0 multiplicity 1
 C         0.104272         0.152480        -0.351260
 C         1.437274        -0.137032         0.418272
 C         1.226369        -0.933187         1.742449
 C         2.670980        -1.197412         2.408706
 C         3.810249        -0.878597         1.518982
 C         3.607052         0.341785         0.617800
 O         2.318665         0.965677         0.539193
 C         3.544710        -0.937449        -0.047783
 O         2.229483        -1.047163        -0.460916
 H        -0.630782         0.901856         0.033360
 H         0.498372         0.529482        -1.271792
 H        -0.348796        -0.832980        -0.542230
 H         0.730986        -0.215421         2.517881
 H         0.554306        -1.757811         1.662393
 H         2.815390        -0.594551         3.340782
 H         2.612970        -2.241275         2.752564
 H         4.766719        -1.256411         1.973741
 H         4.275283         1.258962         0.455771
 H         4.204568        -1.468533        -0.778833
