19
Iteration:  3351charge 0 multiplicity 1
 C         0.132005        -0.007427        -0.292796
 C         1.461107        -0.107778         0.447162
 C         1.318835        -0.766145         1.745514
 C         2.576266        -1.356301         2.408314
 C         3.747983        -0.796360         1.503175
 C         3.643854         0.441272         0.669095
 O         2.346372         1.017162         0.470291
 C         3.529693        -0.974185        -0.038633
 O         2.190254        -1.078802        -0.478472
 H        -0.614642         0.652117         0.247631
 H         0.258999         0.549609        -1.209392
 H        -0.208210        -0.985174        -0.653194
 H         0.765022        -0.066300         2.406337
 H         0.560260        -1.622071         1.724911
 H         2.662397        -1.036369         3.464832
 H         2.647962        -2.449428         2.317235
 H         4.748314        -0.842146         1.964974
 H         4.535760         1.104320         0.420272
 H         4.200738        -1.564253        -0.772282
