19
Iteration:  1708
 C         0.186554         0.373585        -0.199262
 C         1.405307        -0.294349         0.381864
 C         1.328993        -1.238098         1.571311
 C         2.577462        -1.148403         2.338199
 C         3.772294        -0.950971         1.498807
 C         3.556939         0.547308         0.633646
 O         2.167875         0.928187         0.622684
 C         3.603599        -0.828918         0.000768
 O         2.294100        -1.116816        -0.497929
 H        -0.269169         0.988764         0.622310
 H         0.549183         0.928729        -1.039514
 H        -0.586873        -0.273605        -0.752403
 H         0.653739        -1.003517         2.260041
 H         1.197520        -2.290774         1.220812
 H         2.673778        -0.311618         3.078813
 H         2.810346        -1.949285         3.027235
 H         4.723799        -1.129092         1.969327
 H         4.210465         1.412770         0.765374
 H         4.523700        -0.938959        -0.771016
