19
Iteration:  1346
 C         0.239798         0.304544        -0.415921
 C         1.438445        -0.261142         0.367780
 C         1.308430        -0.950740         1.854200
 C         2.671204        -1.475707         2.207249
 C         3.775387        -0.792581         1.439499
 C         3.442091         0.501270         0.744470
 O         2.142790         0.993570         0.562411
 C         3.604480        -0.802544        -0.046389
 O         2.302824        -1.201068        -0.322143
 H        -0.464317         0.869276         0.293750
 H         0.613048         0.987822        -1.196005
 H        -0.327399        -0.583081        -0.762025
 H         0.953816        -0.108572         2.392867
 H         0.528706        -1.834140         1.996714
 H         2.866035        -1.371572         3.276131
 H         2.710618        -2.452775         1.684760
 H         4.728140        -0.892365         1.889860
 H         4.150152         1.345220         0.728178
 H         4.407242        -0.976983        -0.869727
