19
Iteration:  4724
 C         0.225770         0.159272        -0.401703
 C         1.367950        -0.053390         0.486123
 C         1.260067        -0.796845         1.852076
 C         2.581683        -1.356226         2.480997
 C         3.750571        -0.857519         1.406929
 C         3.634119         0.451959         0.641381
 O         2.364341         1.011704         0.481228
 C         3.583285        -0.966192        -0.099630
 O         2.162550        -1.195534        -0.399303
 H        -0.496548         1.007632        -0.223162
 H         0.611365         0.357438        -1.396664
 H        -0.505043        -0.663210        -0.357682
 H         0.785114        -0.031429         2.443777
 H         0.553423        -1.764113         1.664673
 H         2.630475        -1.014424         3.488203
 H         2.633494        -2.534164         2.526447
 H         4.798198        -1.143156         1.509792
 H         4.364349         1.234850         0.519621
 H         4.411343        -1.532923        -0.792425
