19
Iteration:  4682
 C         0.133149         0.309740        -0.307595
 C         1.492523        -0.240300         0.354780
 C         1.222331        -0.757388         1.773413
 C         2.585433        -1.257787         2.358356
 C         3.799069        -0.774369         1.485581
 C         3.658424         0.446840         0.581582
 O         2.275773         0.917340         0.594575
 C         3.580087        -1.017509        -0.015524
 O         2.251586        -1.289355        -0.449099
 H        -0.306009         1.155811         0.297787
 H         0.419254         0.488825        -1.321954
 H        -0.751337        -0.387392        -0.349500
 H         0.730115         0.111138         2.334556
 H         0.378500        -1.537209         1.754816
 H         2.628923        -0.924213         3.358048
 H         2.560435        -2.313739         2.372437
 H         4.770041        -0.930520         1.975506
 H         4.290356         1.305602         0.399351
 H         4.253293        -1.591925        -0.831649
