19
Iteration:  1777
 C         0.105572         0.005365        -0.378095
 C         1.462386        -0.150477         0.393216
 C         1.293692        -0.856892         1.814280
 C         2.611116        -1.468817         2.226820
 C         3.756245        -0.941100         1.445424
 C         3.570507         0.478653         0.792657
 O         2.251896         1.022898         0.618685
 C         3.649101        -0.742927        -0.078588
 O         2.275276        -1.015736        -0.457875
 H        -0.720298         0.607540         0.037668
 H         0.176555         0.350208        -1.474620
 H        -0.368898        -0.951572        -0.592489
 H         0.989169         0.016677         2.399490
 H         0.471610        -1.563913         1.799156
 H         2.725989        -1.181617         3.299640
 H         2.555531        -2.529130         2.319837
 H         4.728016        -1.093607         1.965208
 H         4.372160         1.191106         1.064349
 H         4.313569        -0.895412        -0.894944
