19
Iteration:  2129
 C         0.218591         0.211908        -0.373326
 C         1.377438        -0.263029         0.408402
 C         1.276119        -1.126513         1.689335
 C         2.644968        -1.048024         2.386890
 C         3.842684        -1.014835         1.490050
 C         3.607876         0.415520         0.712689
 O         2.183175         0.866204         0.824567
 C         3.560197        -0.769817        -0.178534
 O         2.228892        -0.990252        -0.599700
 H        -0.212938         1.101247         0.194563
 H         0.688832         0.583631        -1.305097
 H        -0.411828        -0.675646        -0.831222
 H         0.489615        -0.838356         2.433656
 H         0.929397        -2.162733         1.396342
 H         2.697415        -0.042233         2.997898
 H         2.716963        -1.819764         3.097862
 H         4.775947        -1.296112         1.906247
 H         4.193743         1.390178         0.787612
 H         4.258994        -1.177213        -0.815604
