19
Iteration:  3284
 C         0.222833         0.310661        -0.352820
 C         1.415962        -0.337346         0.350443
 C         1.208674        -1.120894         1.816126
 C         2.627709        -0.989446         2.470170
 C         3.815148        -0.862400         1.408538
 C         3.650771         0.434164         0.573865
 O         2.235812         0.873501         0.707081
 C         3.556162        -0.913370        -0.026043
 O         2.213751        -1.126529        -0.527562
 H         0.057342         1.259944         0.127073
 H         0.441920         0.570041        -1.434450
 H        -0.716074        -0.206270        -0.464208
 H         0.384958        -0.672165         2.404696
 H         0.942813        -2.091959         1.392999
 H         2.560912        -0.084147         3.093658
 H         2.684483        -1.884937         3.029914
 H         4.852472        -1.042560         1.709076
 H         4.363485         1.212330         0.095737
 H         4.323410        -1.334085        -0.620884
