19
Iteration:  1422charge 0 multiplicity 1
 C         0.111160         0.092698        -0.287379
 C         1.441444        -0.192243         0.342033
 C         1.286503        -1.065980         1.674509
 C         2.626163        -1.171975         2.438663
 C         3.751784        -0.992994         1.408159
 C         3.622440         0.373628         0.793959
 O         2.247541         0.974453         0.664429
 C         3.600659        -0.756947        -0.059454
 O         2.256508        -0.942957        -0.597426
 H        -0.371619         0.764560         0.478677
 H         0.246202         0.400999        -1.348313
 H        -0.597105        -0.768140        -0.234257
 H         0.518845        -0.688856         2.359000
 H         0.953440        -2.140618         1.231816
 H         2.749008        -0.319842         3.055884
 H         2.659175        -2.114634         2.930383
 H         4.693390        -1.219770         1.879123
 H         4.390057         1.141968         0.709958
 H         4.469938        -1.043382        -0.779323
