19
Iteration:  3670charge 0 multiplicity 1
 C         0.164780         0.118875        -0.345811
 C         1.469412        -0.148537         0.381847
 C         1.300572        -0.778897         1.781254
 C         2.637052        -1.382157         2.402493
 C         3.751732        -0.879417         1.472074
 C         3.615721         0.455453         0.616702
 O         2.277929         1.028179         0.458737
 C         3.543248        -0.970198         0.060047
 O         2.185903        -1.088822        -0.412662
 H        -0.337084         0.869537         0.250992
 H         0.316374         0.378694        -1.453100
 H        -0.315811        -0.845197        -0.213264
 H         0.662248        -0.240596         2.409769
 H         0.693203        -1.691207         1.459198
 H         2.640820        -1.045255         3.443263
 H         2.659364        -2.485249         2.415605
 H         4.808673        -0.866231         1.711904
 H         4.436001         1.189286         0.529826
 H         4.281139        -1.325349        -0.631536
