19
Iteration:  4228
 C         0.264134         0.356138        -0.339178
 C         1.410798        -0.322279         0.380523
 C         1.286610        -0.906964         1.753101
 C         2.673493        -1.097945         2.560466
 C         3.685940        -0.832897         1.480174
 C         3.603112         0.394552         0.589311
 O         2.287999         0.858528         0.455906
 C         3.495526        -0.954311        -0.028305
 O         2.189765        -1.189392        -0.424699
 H        -0.270890         0.990052         0.345547
 H         0.785445         1.048480        -1.135513
 H        -0.384059        -0.293951        -0.915314
 H         0.644632        -0.481436         2.427130
 H         0.808797        -1.903008         1.478725
 H         2.891628        -0.343414         3.305062
 H         2.674483        -2.185911         2.885339
 H         4.727559        -1.099921         1.681923
 H         4.228369         1.281513         0.405564
 H         4.267347        -1.420140        -0.647356
