19
Iteration:  1519
 C         0.092627        -0.018500        -0.293163
 C         1.493736        -0.218960         0.378266
 C         1.245513        -0.884253         1.711968
 C         2.621502        -1.312638         2.340825
 C         3.753105        -0.899275         1.437940
 C         3.660382         0.428380         0.736244
 O         2.228708         0.962757         0.714536
 C         3.603284        -0.771258        -0.061558
 O         2.283113        -0.928834        -0.569621
 H        -0.564051         0.453971         0.488789
 H         0.201868         0.479442        -1.312378
 H        -0.328825        -0.984202        -0.596514
 H         0.720668        -0.087620         2.185351
 H         0.563660        -1.709847         1.441019
 H         2.731748        -0.973711         3.433163
 H         2.533064        -2.438964         2.374715
 H         4.698446        -1.205220         1.877983
 H         4.340459         1.240024         0.695760
 H         4.333485        -1.244696        -0.827036
