19
Iteration:  3708
 C         0.256726         0.202578        -0.334578
 C         1.443123        -0.318939         0.336890
 C         1.213284        -0.922580         1.700208
 C         2.632341        -1.033374         2.476092
 C         3.733265        -0.856518         1.385925
 C         3.617005         0.436708         0.618909
 O         2.345531         0.895863         0.722234
 C         3.520629        -0.912178        -0.056720
 O         2.169410        -1.147545        -0.517836
 H        -0.412360         0.735274         0.419830
 H         0.319161         0.859173        -1.167343
 H        -0.479824        -0.600012        -0.624168
 H         0.388211        -0.331642         2.317526
 H         0.912589        -2.009183         1.628164
 H         2.998732        -0.273170         3.192625
 H         2.569249        -2.007297         2.989912
 H         4.738772        -1.230726         1.726977
 H         4.563268         1.095261         0.588706
 H         4.223999        -1.418549        -0.780426
