19
Iteration:  3726charge 0 multiplicity 1
 C         0.235621         0.296240        -0.278993
 C         1.442690        -0.230099         0.432802
 C         1.284381        -1.029431         1.701234
 C         2.573639        -0.946389         2.434236
 C         3.799520        -0.906383         1.464080
 C         3.635843         0.363474         0.569443
 O         2.221398         0.858584         0.714535
 C         3.531483        -0.998095        -0.084560
 O         2.220676        -1.134575        -0.548023
 H        -0.406922         0.896585         0.419668
 H         0.629157         0.925650        -1.105475
 H        -0.464665        -0.410108        -0.799406
 H         0.618162        -0.446261         2.260725
 H         0.864696        -2.058503         1.415528
 H         2.362387        -0.029758         2.981992
 H         2.921741        -1.735673         3.095389
 H         4.773185        -1.190361         1.740733
 H         4.278177         1.110815         0.253026
 H         4.368175        -1.304735        -0.697830
