19
Iteration:  2320charge 0 multiplicity 1
 C         0.168695         0.106709        -0.199693
 C         1.504306        -0.198843         0.346484
 C         1.273647        -1.019334         1.583311
 C         2.595524        -1.242133         2.452327
 C         3.727107        -0.823616         1.510491
 C         3.605481         0.434109         0.697830
 O         2.304423         0.949673         0.638188
 C         3.561043        -0.940696        -0.002382
 O         2.213131        -0.959721        -0.620802
 H        -0.420272         0.840245         0.356982
 H         0.177555         0.573104        -1.153637
 H        -0.386393        -0.827163        -0.382275
 H         0.658211        -0.367408         2.134117
 H         0.710556        -1.878228         1.437756
 H         2.571619        -0.624690         3.261108
 H         2.695064        -2.305400         2.788374
 H         4.733199        -0.995205         1.821333
 H         4.383871         1.228893         0.424390
 H         4.425401        -1.329996        -0.545567
