19
Iteration:  2698charge 0 multiplicity 1
 C         0.201469         0.083417        -0.350097
 C         1.426333        -0.210926         0.479430
 C         1.247973        -0.719002         1.854953
 C         2.585315        -1.483278         2.221795
 C         3.782211        -0.876691         1.394379
 C         3.552393         0.515855         0.671590
 O         2.247666         0.965124         0.526812
 C         3.627580        -0.757851        -0.017635
 O         2.260886        -1.151045        -0.406172
 H        -0.561478         0.919114        -0.073967
 H         0.639008         0.411153        -1.304305
 H        -0.195617        -1.040541        -0.387389
 H         1.101849         0.138134         2.568632
 H         0.294021        -1.239582         1.915029
 H         2.789160        -1.488390         3.294319
 H         2.406505        -2.612844         2.008010
 H         4.690472        -0.940739         1.925155
 H         4.306679         1.292509         0.872968
 H         4.370392        -1.137166        -0.718684
