19
Iteration:  1030
 C         0.134920         0.176428        -0.187500
 C         1.503647        -0.302470         0.260427
 C         1.345585        -1.088138         1.600841
 C         2.632425        -1.345922         2.356401
 C         3.766968        -0.725601         1.590460
 C         3.533766         0.431100         0.745351
 O         2.201847         0.929551         0.685210
 C         3.624225        -0.873820         0.023737
 O         2.265279        -0.879768        -0.688273
 H        -0.270133         0.805462         0.617448
 H         0.012817         0.660997        -1.173190
 H        -0.612164        -0.635725        -0.430792
 H         0.532891        -0.476590         2.204462
 H         0.763632        -2.126795         1.333911
 H         2.472794        -0.894659         3.340901
 H         2.843399        -2.402741         2.710654
 H         4.870939        -0.963728         1.840560
 H         4.120320         1.319507         0.688350
 H         4.354842        -1.389633        -0.681225
