19
Iteration:  1365
 C         0.165785         0.206868        -0.326967
 C         1.404650        -0.232957         0.398633
 C         1.261214        -0.902271         1.730558
 C         2.623795        -1.503512         2.213035
 C         3.832814        -0.780097         1.498511
 C         3.544695         0.523622         0.709494
 O         2.203216         0.915132         0.588976
 C         3.620186        -0.746829        -0.058532
 O         2.276654        -1.174644        -0.377224
 H        -0.312013         0.965612         0.321714
 H         0.586797         0.867100        -1.068513
 H        -0.456180        -0.656887        -0.707567
 H         0.768310        -0.200571         2.478036
 H         0.427446        -1.614358         1.423773
 H         2.797244        -1.052597         3.198109
 H         2.694026        -2.545669         2.257671
 H         4.812777        -0.773519         1.832521
 H         4.263716         1.348718         0.761875
 H         4.358255        -1.026518        -0.775425
