19
Iteration:  1983
 C         0.141163         0.068602        -0.346149
 C         1.432570        -0.194655         0.390108
 C         1.229541        -0.968541         1.703628
 C         2.597997        -1.358399         2.333415
 C         3.791603        -0.933654         1.463904
 C         3.586850         0.507950         0.721394
 O         2.251627         0.992689         0.667907
 C         3.658270        -0.769576        -0.091839
 O         2.254762        -0.980796        -0.472707
 H        -0.525151         0.714215         0.193765
 H         0.475960         0.455561        -1.344545
 H        -0.357573        -0.847385        -0.521968
 H         0.612990        -0.360591         2.328941
 H         0.605541        -1.929835         1.648775
 H         2.722928        -0.924076         3.338148
 H         2.714953        -2.414662         2.417758
 H         4.835847        -1.176608         1.842104
 H         4.304567         1.307767         0.812981
 H         4.309856        -1.281912        -0.846947
