19
Iteration:  3339charge 0 multiplicity 1
 C         0.088054         0.083117        -0.310222
 C         1.490972        -0.153217         0.389380
 C         1.259338        -0.910776         1.771033
 C         2.590863        -1.299605         2.440597
 C         3.703950        -0.811056         1.492511
 C         3.670548         0.387789         0.512406
 O         2.349811         1.007320         0.483682
 C         3.539623        -0.915695         0.012860
 O         2.231466        -1.029010        -0.407754
 H        -0.680297         0.632938         0.270814
 H         0.357194         0.477444        -1.308025
 H        -0.321756        -0.916107        -0.338663
 H         0.764970        -0.151964         2.466469
 H         0.567687        -1.742895         1.427928
 H         2.590247        -0.888140         3.467095
 H         2.731609        -2.379254         2.561874
 H         4.758905        -1.121989         1.637987
 H         4.508681         1.197017         0.585063
 H         4.361766        -1.375053        -0.606306
