19
Iteration:   929charge 0 multiplicity 1
 C         0.158162         0.076108        -0.260177
 C         1.478347        -0.210918         0.367335
 C         1.273023        -1.020961         1.693974
 C         2.643573        -1.453235         2.305330
 C         3.778348        -0.908697         1.418977
 C         3.501641         0.570007         0.842100
 O         2.164592         1.012690         0.606670
 C         3.650400        -0.768994        -0.003529
 O         2.320085        -0.986746        -0.559338
 H        -0.563243         0.424992         0.474104
 H         0.328422         0.828655        -1.041622
 H        -0.324756        -0.752765        -0.760437
 H         0.843178        -0.321980         2.371174
 H         0.645227        -1.921597         1.329621
 H         2.761757        -0.968324         3.265226
 H         2.527407        -2.504836         2.447636
 H         4.734006        -1.065674         1.849621
 H         4.193245         1.440790         0.783160
 H         4.357121        -1.024566        -0.761021
