19
Iteration:  2394
 C         0.202405         0.319546        -0.251419
 C         1.446150        -0.305125         0.373615
 C         1.238967        -1.058629         1.654964
 C         2.604990        -1.236192         2.447278
 C         3.787908        -0.796157         1.488393
 C         3.561325         0.460491         0.618613
 O         2.227148         0.918359         0.636630
 C         3.578201        -0.866746        -0.047549
 O         2.302043        -1.112483        -0.531746
 H        -0.306913         1.119856         0.304940
 H         0.411436         0.838347        -1.202509
 H        -0.530851        -0.460815        -0.449652
 H         0.460844        -0.581721         2.314540
 H         0.835114        -2.085907         1.508213
 H         2.594255        -0.639816         3.471767
 H         2.770978        -2.252302         2.696542
 H         4.757607        -1.132365         1.765207
 H         4.272977         1.309626         0.323033
 H         4.287602        -1.273910        -0.733524
