19
Iteration:  4330
 C         0.191067         0.366998        -0.374439
 C         1.493760        -0.280653         0.408421
 C         1.212444        -0.865147         1.785424
 C         2.666334        -1.209138         2.440319
 C         3.773593        -0.689708         1.511206
 C         3.600518         0.412794         0.595330
 O         2.298622         0.879390         0.503204
 C         3.535573        -0.958579        -0.030952
 O         2.170948        -1.304664        -0.446498
 H        -0.170483         1.314780         0.171491
 H         0.579359         0.687178        -1.311057
 H        -0.707076        -0.289539        -0.607967
 H         0.726708        -0.090142         2.352720
 H         0.473910        -1.707214         1.904854
 H         2.853577        -0.756905         3.407695
 H         2.683593        -2.342993         2.554598
 H         4.818177        -0.961529         1.781212
 H         4.321734         1.229386         0.463275
 H         4.284280        -1.663666        -0.566152
