19
Iteration:  2275
 C         0.227128         0.179510        -0.314296
 C         1.444678        -0.195263         0.376917
 C         1.299507        -0.818593         1.792250
 C         2.626359        -1.519077         2.200540
 C         3.800759        -0.806924         1.492331
 C         3.501768         0.521263         0.738536
 O         2.211824         0.972158         0.497905
 C         3.574931        -0.815971        -0.013635
 O         2.261057        -1.194104        -0.370139
 H        -0.462317         0.816441         0.270360
 H         0.421705         0.859347        -1.208126
 H        -0.184262        -0.727956        -0.756073
 H         0.987818        -0.116368         2.555848
 H         0.494157        -1.446447         1.613075
 H         2.714044        -1.223366         3.194413
 H         2.639050        -2.626963         2.118881
 H         4.758259        -0.886650         1.969350
 H         4.281099         1.345421         0.851192
 H         4.139730        -1.041570        -0.839466
