19
Iteration:  4338charge 0 multiplicity 1
 C         0.178159         0.365154        -0.385062
 C         1.417986        -0.289655         0.399327
 C         1.219723        -0.872796         1.815018
 C         2.585798        -1.218302         2.402875
 C         3.766165        -0.689070         1.488980
 C         3.656931         0.428184         0.513784
 O         2.348648         0.887581         0.529622
 C         3.575656        -0.982794        -0.039986
 O         2.167204        -1.292064        -0.364321
 H        -0.203927         1.197079         0.265965
 H         0.589835         0.667503        -1.401082
 H        -0.560447        -0.467183        -0.421702
 H         0.832618        -0.075597         2.332336
 H         0.426654        -1.733592         1.688586
 H         2.678519        -0.883790         3.444421
 H         2.651543        -2.374006         2.582826
 H         4.813931        -0.760710         1.766462
 H         4.387294         1.252170         0.562821
 H         4.381454        -1.305415        -0.721016
