19
Iteration:  2084
 C         0.078255         0.147740        -0.259001
 C         1.487284        -0.186156         0.401800
 C         1.270619        -1.040661         1.623989
 C         2.551203        -1.343159         2.310889
 C         3.801308        -0.823483         1.511982
 C         3.636296         0.426257         0.707691
 O         2.235936         1.014293         0.559859
 C         3.610919        -0.829224         0.014530
 O         2.272045        -1.006448        -0.479565
 H        -0.547170         0.709004         0.491010
 H         0.099925         0.628969        -1.222896
 H        -0.203522        -0.947946        -0.478725
 H         0.659832        -0.398341         2.247808
 H         0.610341        -1.958492         1.436627
 H         2.606261        -1.028852         3.415345
 H         2.748257        -2.359592         2.281235
 H         4.773604        -0.978056         1.882349
 H         4.528453         1.102172         0.635216
 H         4.423808        -1.157229        -0.632515
