19
Iteration:  1741
 C         0.137111         0.161463        -0.342263
 C         1.464532        -0.210094         0.407576
 C         1.289659        -1.062552         1.669746
 C         2.594471        -1.246140         2.368545
 C         3.756073        -0.779653         1.532354
 C         3.634040         0.446866         0.664917
 O         2.272530         0.881141         0.745003
 C         3.555035        -0.828643        -0.039279
 O         2.222245        -1.001366        -0.617398
 H        -0.501782         0.846215         0.259743
 H         0.502440         0.691631        -1.175685
 H        -0.260209        -0.872411        -0.479868
 H         0.676273        -0.571817         2.307610
 H         0.770999        -2.014129         1.406974
 H         2.695922        -0.760446         3.362092
 H         2.856928        -2.295080         2.442185
 H         4.651321        -1.104957         1.978976
 H         4.270938         1.296495         0.705437
 H         4.305714        -1.119252        -0.903840
