19
Iteration:  1512charge 0 multiplicity 1
 C         0.106889         0.008671        -0.284614
 C         1.475755        -0.212002         0.372508
 C         1.270908        -0.938955         1.667890
 C         2.578408        -1.292228         2.374894
 C         3.761873        -0.946518         1.446462
 C         3.607314         0.463548         0.746138
 O         2.250576         0.973045         0.685021
 C         3.627641        -0.801884        -0.091663
 O         2.253003        -0.951580        -0.531750
 H        -0.552416         0.533695         0.394315
 H         0.384505         0.647595        -1.157502
 H        -0.405408        -0.901146        -0.586503
 H         0.659238        -0.204475         2.222628
 H         0.657295        -1.929150         1.640307
 H         2.685195        -0.816324         3.292376
 H         2.658627        -2.338844         2.391722
 H         4.873633        -1.073116         1.656106
 H         4.441467         1.166542         0.696746
 H         4.452081        -0.847083        -0.696691
