19
Iteration:   887
 C         0.161758         0.116685        -0.282194
 C         1.424596        -0.255181         0.389727
 C         1.283745        -0.965338         1.745428
 C         2.616322        -1.573282         2.084601
 C         3.781062        -0.690079         1.520143
 C         3.594936         0.559830         0.731535
 O         2.129533         1.009447         0.602725
 C         3.658982        -0.805528         0.069158
 O         2.304801        -1.018085        -0.452062
 H        -0.476264         0.493329         0.515335
 H         0.267129         0.694394        -1.211009
 H        -0.339158        -0.742017        -0.762737
 H         0.875243        -0.176760         2.450846
 H         0.546435        -1.862638         1.672299
 H         2.635721        -1.820410         3.115637
 H         2.877105        -2.460554         1.596049
 H         4.711698        -0.836437         2.054569
 H         4.340498         1.366453         0.672487
 H         4.411378        -1.208582        -0.527746
