19
Iteration:  1336
 C         0.204749         0.203456        -0.440368
 C         1.383942        -0.261844         0.400303
 C         1.254899        -0.907231         1.902176
 C         2.670789        -1.532874         2.187990
 C         3.834441        -0.728158         1.520387
 C         3.535878         0.542704         0.695072
 O         2.172482         0.986010         0.596291
 C         3.564768        -0.808481        -0.005289
 O         2.273892        -1.151813        -0.421222
 H        -0.369075         0.907394         0.209509
 H         0.664733         0.893320        -1.174397
 H        -0.343575        -0.545577        -1.013177
 H         0.949027        -0.133687         2.560249
 H         0.396387        -1.637554         1.819151
 H         2.976413        -1.698633         3.239583
 H         2.659197        -2.663103         1.937591
 H         4.895806        -0.830185         1.724512
 H         4.315951         1.324133         0.661140
 H         4.370997        -1.110076        -0.798154
