19
Iteration:    13charge 0 multiplicity 1
 C        -0.008960         0.138638        -0.304318
 C         1.440008        -0.261833         0.363572
 C         1.200888        -1.016354         1.652435
 C         2.654989        -1.280466         2.311733
 C         3.832239        -0.910506         1.432623
 C         3.603020         0.441759         0.823789
 O         2.289242         0.958084         0.756154
 C         3.631050        -0.718064        -0.136518
 O         2.331027        -0.999758        -0.541077
 H        -0.720096         0.535456         0.514840
 H        -0.078349         0.757569        -1.157885
 H        -0.424905        -0.899233        -0.442505
 H         0.473229        -0.482080         2.277742
 H         0.749328        -1.942801         1.349350
 H         2.747413        -0.707439         3.202907
 H         2.733737        -2.348184         2.656681
 H         4.742986        -1.272765         1.697958
 H         4.329661         1.248094         0.687191
 H         4.349259        -0.989732        -0.861663
