19
Iteration:  3711
 C         0.251574         0.220752        -0.309725
 C         1.456308        -0.319604         0.322540
 C         1.199570        -0.947625         1.685210
 C         2.657055        -1.002484         2.472293
 C         3.729401        -0.867481         1.399391
 C         3.589728         0.421654         0.599210
 O         2.340453         0.897006         0.741144
 C         3.511105        -0.906416        -0.068416
 O         2.186572        -1.160040        -0.521918
 H        -0.331470         0.748319         0.398786
 H         0.423958         0.929408        -1.141525
 H        -0.340887        -0.624889        -0.594011
 H         0.416836        -0.408078         2.251496
 H         0.865267        -1.916041         1.633404
 H         3.004198        -0.232515         3.193728
 H         2.526563        -1.953160         3.016983
 H         4.712577        -1.292172         1.752809
 H         4.440933         1.197098         0.573898
 H         4.169782        -1.485577        -0.716658
