19
Iteration:  4238
 C         0.134030         0.297076        -0.363280
 C         1.467677        -0.214268         0.329418
 C         1.276936        -0.886156         1.842987
 C         2.672961        -1.032026         2.523029
 C         3.742214        -0.892387         1.476417
 C         3.595971         0.375173         0.647349
 O         2.319043         0.858555         0.491434
 C         3.496416        -0.998467        -0.000506
 O         2.192465        -1.168781        -0.543795
 H        -0.391626         0.923132         0.332855
 H         0.705136         0.958099        -1.158806
 H        -0.443841        -0.513477        -0.780306
 H         0.431372        -0.363672         2.259864
 H         0.905302        -1.898015         1.664850
 H         2.805375        -0.365543         3.432335
 H         2.990928        -2.076611         2.908200
 H         4.637770        -1.378824         1.867960
 H         4.328026         1.197932         0.645254
 H         4.267343        -1.369106        -0.721455
