19
Iteration:  3381
 C         0.126048         0.093149        -0.357620
 C         1.385092        -0.203367         0.418537
 C         1.299345        -0.661828         1.837188
 C         2.578171        -1.401846         2.321853
 C         3.761629        -0.854221         1.456198
 C         3.605062         0.471910         0.658009
 O         2.245745         0.909889         0.492331
 C         3.615689        -0.856516        -0.070230
 O         2.324230        -1.192498        -0.364400
 H        -0.591586         0.616683         0.263323
 H         0.337637         0.911078        -1.102777
 H        -0.436997        -0.663927        -0.853079
 H         1.271519         0.411780         2.333316
 H         0.404341        -1.211899         2.134451
 H         2.692370        -1.146347         3.368686
 H         2.322655        -2.461584         2.143744
 H         4.739358        -1.005485         1.942309
 H         4.446844         1.265407         0.469067
 H         4.302333        -1.305381        -0.828419
