19
Iteration:  4532
 C         0.155454         0.136481        -0.279257
 C         1.488235        -0.156222         0.355422
 C         1.284766        -0.932341         1.686626
 C         2.565495        -1.122613         2.534431
 C         3.738706        -0.909851         1.506963
 C         3.645451         0.361848         0.546523
 O         2.448466         1.048057         0.542208
 C         3.426618        -0.970219         0.013896
 O         2.159949        -1.103438        -0.514109
 H        -0.352912         1.037427         0.110208
 H         0.343517         0.288814        -1.306505
 H        -0.463379        -0.771101        -0.146180
 H         0.464236        -0.354967         2.271221
 H         0.989567        -1.895016         1.406539
 H         2.675931        -0.352508         3.354646
 H         2.612639        -2.097354         3.015107
 H         4.639882        -1.417600         1.841530
 H         4.493712         0.994955         0.315032
 H         4.265281        -1.481973        -0.605913
