19
Iteration:  3233
 C         0.057647         0.118988        -0.230829
 C         1.435967        -0.265560         0.350829
 C         1.284142        -0.915425         1.730826
 C         2.611059        -1.095810         2.427159
 C         3.742971        -0.903839         1.522091
 C         3.650904         0.343174         0.680796
 O         2.370620         0.993616         0.521158
 C         3.558437        -0.959663        -0.013363
 O         2.255910        -1.039524        -0.583154
 H        -0.574738         0.717874         0.500153
 H         0.100466         0.767357        -1.094188
 H        -0.547970        -0.751501        -0.588471
 H         0.516292        -0.298548         2.120219
 H         0.754586        -1.911147         1.463763
 H         2.531088        -0.410961         3.304317
 H         2.798999        -2.144558         2.836799
 H         4.676224        -1.113525         2.032492
 H         4.333916         1.257235         0.609043
 H         4.358264        -1.296444        -0.724542
