19
Iteration:  2936charge 0 multiplicity 1
 C         0.260460         0.057073        -0.435359
 C         1.389655        -0.146552         0.424380
 C         1.287353        -0.717436         1.898489
 C         2.653272        -1.478547         2.185803
 C         3.863837        -0.772681         1.585879
 C         3.551737         0.452211         0.689087
 O         2.229366         1.023803         0.546767
 C         3.517830        -0.843037        -0.053703
 O         2.204817        -1.185346        -0.403370
 H        -0.331606         0.951939        -0.186082
 H         0.590409         0.183176        -1.467962
 H        -0.530267        -0.712488        -0.347741
 H         1.030295         0.173422         2.519655
 H         0.467053        -1.544324         2.211428
 H         2.814508        -1.873897         3.162599
 H         2.439751        -2.391589         1.534677
 H         4.753304        -1.115929         2.113832
 H         4.252930         1.278116         0.447883
 H         4.333113        -1.027885        -0.728302
