19
Iteration:  3975charge 0 multiplicity 1
 C         0.345462         0.381399        -0.321252
 C         1.412963        -0.326440         0.338944
 C         1.221787        -1.033799         1.730957
 C         2.644123        -1.017494         2.469288
 C         3.791806        -0.761866         1.439436
 C         3.596690         0.424055         0.565263
 O         2.215232         0.828668         0.602631
 C         3.541236        -1.021869         0.029322
 O         2.148672        -1.179200        -0.473159
 H         0.179126         1.290309         0.323806
 H         0.719672         0.728081        -1.242549
 H        -0.691322        -0.012672        -0.414992
 H         0.519308        -0.340221         2.288500
 H         0.841437        -2.087954         1.649807
 H         2.590183        -0.186690         3.133978
 H         2.825573        -1.956172         2.941940
 H         4.810538        -1.140212         1.576843
 H         4.544079         0.977226         0.392054
 H         4.239888        -1.458916        -0.660539
