19
Iteration:  2448charge 0 multiplicity 1
 C         0.167872        -0.001850        -0.324104
 C         1.474767        -0.205515         0.373142
 C         1.255171        -0.751127         1.830198
 C         2.565580        -1.473656         2.232751
 C         3.738827        -0.813102         1.480277
 C         3.608556         0.432636         0.642829
 O         2.285337         1.014436         0.614620
 C         3.632728        -0.867024         0.016561
 O         2.230582        -1.017175        -0.497917
 H        -0.675835         0.289607         0.326535
 H         0.329542         0.698403        -1.167804
 H        -0.185381        -1.003302        -0.626910
 H         1.225007         0.164954         2.557216
 H         0.281413        -1.352864         1.884562
 H         2.603820        -1.179067         3.407533
 H         2.561462        -2.538069         2.163071
 H         4.643564        -0.987720         2.004241
 H         4.350054         1.232241         0.407419
 H         4.349376        -1.175717        -0.760706
