19
Iteration:  4808
 C         0.160841         0.226072        -0.374946
 C         1.435253        -0.181591         0.415045
 C         1.261425        -0.894016         1.726917
 C         2.631064        -1.240164         2.382306
 C         3.768312        -0.867085         1.500570
 C         3.698590         0.469049         0.593238
 O         2.385685         0.967289         0.484225
 C         3.473687        -0.935783         0.007195
 O         2.140568        -1.165086        -0.333805
 H        -0.481814         0.742949         0.344332
 H         0.374053         0.971629        -1.216021
 H        -0.179905        -0.751903        -0.740621
 H         0.591068        -0.298527         2.341381
 H         0.639156        -1.813534         1.538181
 H         2.613667        -0.607055         3.287542
 H         2.796162        -2.295412         2.646516
 H         4.663145        -1.400794         1.886799
 H         4.432925         1.241186         0.383613
 H         4.041262        -1.595789        -0.795924
