19
Iteration:   992
 C         0.205248         0.234657        -0.307645
 C         1.450636        -0.235834         0.422748
 C         1.295675        -1.239612         1.571380
 C         2.534928        -1.218724         2.297324
 C         3.841601        -0.849567         1.392186
 C         3.552797         0.508305         0.813932
 O         2.183603         0.927293         0.764980
 C         3.607839        -0.760268        -0.155448
 O         2.254832        -1.064666        -0.447916
 H        -0.331179         0.964252         0.329785
 H         0.533241         0.829026        -1.150615
 H        -0.367087        -0.649027        -0.475283
 H         0.508919        -1.039032         2.223525
 H         1.024509        -2.170407         1.059060
 H         2.401388        -0.353555         3.037995
 H         3.021312        -2.149257         2.788499
 H         4.720259        -0.927872         1.942893
 H         4.340338         1.342505         0.811662
 H         4.322369        -0.974260        -0.964878
