19
Iteration:   386
 C         0.122394        -0.023169        -0.410305
 C         1.426392        -0.207658         0.409003
 C         1.299175        -0.902827         1.856530
 C         2.611797        -1.600857         2.233675
 C         3.756950        -0.793771         1.450365
 C         3.580588         0.522149         0.782240
 O         2.217488         0.985922         0.705272
 C         3.640725        -0.731466        -0.069751
 O         2.274519        -0.883571        -0.576043
 H        -0.748438         0.242470         0.200693
 H         0.328678         0.733922        -1.261323
 H        -0.042024        -1.075581        -0.763072
 H         0.984562        -0.053527         2.570462
 H         0.490393        -1.709432         1.865987
 H         2.877095        -1.519631         3.412351
 H         2.474805        -2.706665         1.874167
 H         4.802673        -0.941997         1.976867
 H         4.368553         1.325594         0.884356
 H         4.391590        -1.124140        -0.765387
