19
Iteration:  4030charge 0 multiplicity 1
 C         0.129817         0.013830        -0.251919
 C         1.483747        -0.153896         0.408367
 C         1.269473        -0.837653         1.761883
 C         2.498773        -1.036661         2.352391
 C         3.739478        -0.972504         1.446726
 C         3.670613         0.380898         0.608365
 O         2.424717         0.978324         0.536990
 C         3.557243        -0.968340         0.000086
 O         2.190252        -1.047141        -0.508177
 H        -0.461473         0.743649         0.435617
 H         0.238924         0.572746        -1.122759
 H        -0.409223        -0.971389        -0.487940
 H         0.640867        -0.122744         2.367514
 H         0.628479        -1.823010         1.677153
 H         2.596529        -0.434499         3.260832
 H         2.408473        -1.999522         2.845278
 H         4.664119        -1.375210         1.874111
 H         4.611568         0.883868         0.507005
 H         4.116869        -1.531443        -0.651271
