19
Iteration:  1621charge 0 multiplicity 1
 C         0.162139         0.112410        -0.318986
 C         1.451441        -0.222268         0.357854
 C         1.218405        -0.935536         1.726463
 C         2.684755        -1.416973         2.298117
 C         3.745454        -0.811577         1.447395
 C         3.570689         0.502904         0.735579
 O         2.234151         0.974913         0.657094
 C         3.578138        -0.820201        -0.040032
 O         2.300507        -1.043768        -0.474021
 H        -0.383060         0.928585         0.189571
 H         0.509236         0.568286        -1.269507
 H        -0.445613        -0.833397        -0.472837
 H         0.722848        -0.209617         2.348693
 H         0.522949        -1.845575         1.659279
 H         2.623829        -1.072816         3.330132
 H         2.713646        -2.481597         2.346226
 H         4.748885        -1.085407         1.857464
 H         4.238350         1.362417         0.480358
 H         4.321524        -1.186277        -0.788354
