19
Iteration:  4715
 C         0.208607         0.210998        -0.434689
 C         1.442378        -0.181871         0.470306
 C         1.274755        -0.816369         1.843643
 C         2.602784        -1.362229         2.467284
 C         3.821233        -0.865839         1.477507
 C         3.627322         0.499155         0.640203
 O         2.323810         0.993860         0.425673
 C         3.490881        -0.972709        -0.080157
 O         2.140205        -1.140891        -0.364834
 H        -0.191450         1.235090        -0.184130
 H         0.638442         0.316763        -1.394911
 H        -0.467158        -0.668997        -0.493127
 H         0.787892        -0.214715         2.663971
 H         0.550468        -1.596603         1.493528
 H         2.849988        -1.069270         3.453005
 H         2.566469        -2.408536         2.468056
 H         4.811942        -1.135205         1.869855
 H         4.389891         1.245974         0.520200
 H         4.078970        -1.538904        -0.892747
