19
Iteration:  1774
 C         0.112754        -0.012694        -0.407917
 C         1.463138        -0.146641         0.377670
 C         1.283957        -0.874601         1.808298
 C         2.625669        -1.451139         2.246785
 C         3.751841        -0.938029         1.444246
 C         3.590628         0.469364         0.778533
 O         2.245518         1.039001         0.644627
 C         3.641284        -0.762263        -0.064183
 O         2.278497        -0.993753        -0.455607
 H        -0.645154         0.609824         0.145374
 H         0.171698         0.369104        -1.407105
 H        -0.444699        -0.978947        -0.552268
 H         0.974806        -0.088298         2.364162
 H         0.382518        -1.520227         1.804051
 H         2.723418        -1.095307         3.296082
 H         2.620978        -2.538706         2.294448
 H         4.654459        -1.154474         1.934559
 H         4.342330         1.163672         1.018221
 H         4.267079        -0.946537        -1.037311
