19
Iteration:  4326charge 0 multiplicity 1
 C         0.217314         0.343776        -0.349252
 C         1.456804        -0.264961         0.374199
 C         1.235494        -0.838632         1.795460
 C         2.693610        -1.194087         2.447395
 C         3.777724        -0.755930         1.527617
 C         3.574369         0.423845         0.618095
 O         2.261504         0.878749         0.489249
 C         3.527351        -0.977902        -0.021867
 O         2.192368        -1.274793        -0.463904
 H        -0.104112         1.265731         0.121251
 H         0.610115         0.748214        -1.372611
 H        -0.673588        -0.215172        -0.608353
 H         0.713921        -0.084846         2.366246
 H         0.576956        -1.767497         1.867400
 H         2.808430        -0.665259         3.418336
 H         2.827812        -2.319419         2.492700
 H         4.755285        -1.054029         1.844247
 H         4.325627         1.170740         0.329592
 H         4.160766        -1.640997        -0.481662
