19
Iteration:  3574charge 0 multiplicity 1
 C         0.134654         0.049191        -0.323719
 C         1.461407        -0.214715         0.346963
 C         1.246527        -0.816757         1.810824
 C         2.581940        -1.231444         2.350674
 C         3.800383        -0.907114         1.466018
 C         3.638329         0.443364         0.600940
 O         2.311540         1.039920         0.576393
 C         3.544873        -0.934641         0.025991
 O         2.187787        -1.100058        -0.467907
 H        -0.576424         0.676156         0.219229
 H         0.555432         0.747366        -1.154893
 H        -0.345367        -0.827781        -0.781066
 H         0.635175        -0.133300         2.388891
 H         0.573225        -1.764981         1.786256
 H         3.006238        -0.814191         3.257174
 H         2.609019        -2.311389         2.576178
 H         4.840394        -0.915738         1.735975
 H         4.591003         0.988189         0.656880
 H         4.279384        -1.389333        -0.669304
