19
Iteration:  2116charge 0 multiplicity 1
 C         0.220902         0.170890        -0.433803
 C         1.472250        -0.289065         0.374607
 C         1.294488        -1.117977         1.702360
 C         2.645271        -1.124390         2.468557
 C         3.739569        -0.923491         1.365857
 C         3.566213         0.409083         0.732289
 O         2.233390         0.910611         0.839767
 C         3.517753        -0.834439        -0.079429
 O         2.241075        -0.929922        -0.597121
 H        -0.482891         0.852601         0.105780
 H         0.491708         0.643713        -1.340034
 H        -0.467238        -0.734040        -0.518627
 H         0.599849        -0.443335         2.196142
 H         0.922943        -2.223808         1.599231
 H         2.665580        -0.218800         3.172892
 H         2.815662        -1.989038         3.034667
 H         4.726591        -1.188524         1.600680
 H         4.434409         1.110813         0.583006
 H         4.280177        -1.043552        -0.793289
