19
Iteration:  3735charge 0 multiplicity 1
 C         0.190337         0.332421        -0.312585
 C         1.391390        -0.254607         0.444193
 C         1.264176        -1.096905         1.705801
 C         2.600400        -0.980567         2.444737
 C         3.816107        -0.828108         1.438292
 C         3.638000         0.342116         0.583616
 O         2.284342         0.849909         0.640069
 C         3.562073        -1.001301        -0.016730
 O         2.192741        -1.092074        -0.540058
 H        -0.388511         0.970137         0.320314
 H         0.530603         1.074974        -1.077692
 H        -0.504530        -0.419674        -0.672430
 H         0.493199        -0.818884         2.357560
 H         1.027756        -2.125043         1.464627
 H         2.778688         0.016439         2.890326
 H         2.546477        -1.689770         3.319737
 H         4.733793        -1.056384         1.914104
 H         4.453300         0.945181         0.334844
 H         4.202519        -1.244071        -0.816330
