19
Iteration:  3026charge 0 multiplicity 1
 C         0.250565         0.197885        -0.400715
 C         1.447249        -0.289827         0.418812
 C         1.279517        -1.071885         1.761445
 C         2.617005        -1.039582         2.467586
 C         3.758011        -0.905957         1.421053
 C         3.562879         0.446266         0.637277
 O         2.286024         0.973531         0.720190
 C         3.517377        -0.910191        -0.078981
 O         2.184540        -1.098137        -0.520772
 H        -0.527347         0.697587         0.189635
 H         0.644845         1.045794        -1.062180
 H        -0.070635        -0.700778        -0.917615
 H         0.432293        -0.520040         2.261020
 H         0.997643        -2.122605         1.394858
 H         2.728544        -0.252291         3.153673
 H         2.839220        -1.951116         3.105046
 H         4.742066        -1.307219         1.718556
 H         4.318642         1.091211         0.219010
 H         4.227551        -1.164866        -0.879803
