19
Iteration:  4373charge 0 multiplicity 1
 C         0.198146         0.098646        -0.353147
 C         1.422891        -0.113798         0.396615
 C         1.292604        -0.703936         1.783531
 C         2.610433        -1.271474         2.380946
 C         3.764486        -0.869464         1.441884
 C         3.652363         0.424235         0.671961
 O         2.348770         0.999407         0.466298
 C         3.517776        -1.011032         0.018142
 O         2.143173        -1.167279        -0.397567
 H        -0.586320         0.825140         0.060336
 H         0.384475         0.360507        -1.370377
 H        -0.291452        -0.927199        -0.397718
 H         0.843912        -0.005478         2.437983
 H         0.490204        -1.570062         1.706325
 H         2.646066        -0.876487         3.389379
 H         2.655216        -2.421344         2.370327
 H         4.824991        -1.094177         1.731343
 H         4.458796         1.148770         0.752238
 H         4.256611        -1.444232        -0.775128
