19
Iteration:   517charge 0 multiplicity 1
 C         0.186808         0.151464        -0.236107
 C         1.453013        -0.310951         0.304437
 C         1.282913        -1.179754         1.551249
 C         2.568527        -1.150420         2.359842
 C         3.831855        -0.861880         1.425245
 C         3.550630         0.456871         0.823106
 O         2.202341         0.869657         0.850370
 C         3.601115        -0.755102        -0.066674
 O         2.272175        -0.918454        -0.631867
 H        -0.270281         0.870105         0.397632
 H         0.267939         0.621178        -1.212767
 H        -0.525401        -0.564431        -0.541670
 H         0.339468        -1.061614         2.141480
 H         0.972142        -2.125995         1.043152
 H         2.560666        -0.374092         3.143789
 H         2.768709        -2.010157         2.891914
 H         4.856220        -1.023460         1.699813
 H         4.294379         1.256324         0.715857
 H         4.502676        -1.064170        -0.620893
