19
Iteration:  2516
 C         0.181424         0.196187        -0.329190
 C         1.463612        -0.229438         0.398601
 C         1.231014        -0.908419         1.791650
 C         2.605954        -1.394145         2.298833
 C         3.746216        -0.725026         1.503623
 C         3.606041         0.518096         0.632223
 O         2.272912         0.942385         0.540550
 C         3.619424        -0.876844         0.020487
 O         2.218622        -1.103443        -0.462454
 H        -0.371325         0.900143         0.293558
 H         0.328278         0.632777        -1.266799
 H        -0.550904        -0.637094        -0.326129
 H         0.541341        -0.426243         2.506515
 H         0.777709        -1.870283         1.560130
 H         2.892055        -1.295494         3.428877
 H         2.735853        -2.426947         2.103791
 H         4.706598        -1.130644         1.916917
 H         4.313519         1.306863         0.489133
 H         4.375618        -1.490309        -0.667490
