19
Iteration:  2644charge 0 multiplicity 1
 C         0.169065         0.203822        -0.271574
 C         1.473504        -0.236153         0.406236
 C         1.218141        -0.939930         1.729955
 C         2.618606        -1.260619         2.411125
 C         3.739807        -0.811742         1.426570
 C         3.605358         0.419860         0.674653
 O         2.219538         0.951439         0.550815
 C         3.590364        -0.888330        -0.038934
 O         2.297140        -1.091838        -0.508507
 H        -0.503845         0.574919         0.568882
 H         0.253039         0.968318        -1.036950
 H        -0.319421        -0.671059        -0.862535
 H         0.725214        -0.318080         2.525417
 H         0.723680        -1.885483         1.488911
 H         2.768416        -0.725074         3.347311
 H         2.747385        -2.344456         2.529188
 H         4.639557        -1.214893         1.865714
 H         4.329624         1.206928         0.616072
 H         4.448803        -1.242078        -0.695230
