19
Iteration:  2620charge 0 multiplicity 1
 C         0.156431         0.287591        -0.231904
 C         1.427481        -0.276135         0.369638
 C         1.291276        -1.067844         1.655716
 C         2.559022        -1.166360         2.449847
 C         3.836560        -0.856404         1.458934
 C         3.596925         0.426745         0.692543
 O         2.252182         0.900550         0.581278
 C         3.603554        -0.832453        -0.066585
 O         2.234829        -1.122840        -0.536417
 H        -0.406984         0.883400         0.598964
 H         0.460563         1.015451        -1.053447
 H        -0.413718        -0.508920        -0.829517
 H         0.663977        -0.538748         2.375388
 H         0.937691        -2.070487         1.449404
 H         2.575574        -0.293475         3.047746
 H         2.501679        -2.093245         3.124135
 H         4.779884        -1.022484         1.969477
 H         4.237346         1.261600         0.599031
 H         4.275236        -1.320587        -0.857637
