19
Iteration:   577
 C         0.110979         0.125177        -0.317286
 C         1.485777        -0.156963         0.408768
 C         1.281948        -1.147872         1.608736
 C         2.633820        -1.381614         2.257112
 C         3.725714        -0.820973         1.443463
 C         3.563934         0.495864         0.795947
 O         2.198700         1.000229         0.689360
 C         3.605924        -0.699665        -0.039183
 O         2.311560        -1.051503        -0.456519
 H        -0.637707         0.421901         0.441568
 H         0.366410         0.903455        -1.078087
 H        -0.195704        -0.896977        -0.705826
 H         0.715077        -0.592815         2.322828
 H         0.820531        -1.991047         1.090889
 H         2.634686        -0.802328         3.200923
 H         2.787116        -2.498994         2.377908
 H         4.826957        -1.012927         1.716074
 H         4.348389         1.299035         0.912098
 H         4.328993        -1.025639        -0.805435
