19
Iteration:  2318charge 0 multiplicity 1
 C         0.170091         0.099775        -0.194782
 C         1.497337        -0.206950         0.354124
 C         1.257908        -0.998739         1.572426
 C         2.592526        -1.270382         2.453548
 C         3.733168        -0.829503         1.521789
 C         3.610047         0.458882         0.682194
 O         2.303213         0.945977         0.633537
 C         3.571482        -0.955326         0.009719
 O         2.221133        -0.956932        -0.632268
 H        -0.387276         0.802062         0.439890
 H         0.115798         0.588813        -1.184095
 H        -0.405405        -0.769026        -0.390228
 H         0.653148        -0.310918         2.185089
 H         0.682911        -1.872752         1.460844
 H         2.602663        -0.621107         3.291586
 H         2.721340        -2.262963         2.743994
 H         4.736841        -0.963737         1.856882
 H         4.379770         1.247112         0.381080
 H         4.379865        -1.289228        -0.513547
