19
Iteration:  3763charge 0 multiplicity 1
 C         0.165310         0.254083        -0.254233
 C         1.480967        -0.159973         0.421546
 C         1.383497        -1.092593         1.630501
 C         2.572902        -1.073785         2.549292
 C         3.698369        -0.796385         1.482414
 C         3.694890         0.368455         0.591537
 O         2.305035         0.979256         0.516567
 C         3.467818        -0.993933         0.003381
 O         2.177818        -1.130769        -0.541858
 H        -0.274278         1.013288         0.453249
 H         0.381380         0.820986        -1.177960
 H        -0.543574        -0.583192        -0.381834
 H         0.441914        -0.732192         2.265994
 H         1.084382        -2.090877         1.280878
 H         2.602191        -0.274393         3.297273
 H         2.610143        -2.009240         3.107151
 H         4.650585        -1.320514         1.782569
 H         4.608304         1.035496         0.358932
 H         4.205499        -1.559866        -0.596069
