19
Iteration:   651
 C         0.089347         0.120681        -0.308838
 C         1.379859        -0.222359         0.408027
 C         1.301325        -0.988457         1.713478
 C         2.645627        -1.604538         2.061704
 C         3.796851        -0.795102         1.536792
 C         3.497761         0.539702         0.809612
 O         2.189725         1.078608         0.532294
 C         3.661560        -0.695289         0.022249
 O         2.369475        -1.066297        -0.348650
 H        -0.409048         0.696440         0.465173
 H         0.354040         0.457278        -1.320330
 H        -0.373787        -0.876580        -0.510228
 H         0.800716        -0.346760         2.571819
 H         0.429720        -1.817357         1.413731
 H         2.672414        -1.601428         3.137340
 H         2.759132        -2.552963         1.619147
 H         4.768933        -0.973985         1.969225
 H         4.178170         1.437114         0.638704
 H         4.463797        -0.920603        -0.749148
