19
Iteration:  1142charge 0 multiplicity 1
 C         0.131888         0.087665        -0.253688
 C         1.492064        -0.144629         0.381746
 C         1.244413        -0.965271         1.679297
 C         2.609467        -1.456820         2.264106
 C         3.774692        -0.885438         1.506860
 C         3.559114         0.542118         0.772201
 O         2.241566         1.016574         0.532100
 C         3.608193        -0.707274        -0.047861
 O         2.292870        -1.118755        -0.475534
 H        -0.354525         0.553889         0.640584
 H         0.199961         0.692814        -1.160010
 H        -0.376289        -0.849020        -0.405916
 H         0.578825        -0.356590         2.432128
 H         0.808469        -1.883269         1.268334
 H         2.812335        -1.237931         3.320593
 H         2.453362        -2.511236         2.202359
 H         4.721155        -0.856735         1.909177
 H         4.281165         1.295582         1.077622
 H         4.346692        -0.907847        -0.742955
