19
Iteration:  3383
 C         0.120752         0.111308        -0.369190
 C         1.384085        -0.208891         0.427218
 C         1.306264        -0.659479         1.845149
 C         2.577451        -1.410232         2.314790
 C         3.763692        -0.847350         1.469393
 C         3.608318         0.484746         0.659620
 O         2.248794         0.908037         0.490746
 C         3.624393        -0.856105        -0.091940
 O         2.321645        -1.203106        -0.362286
 H        -0.653532         0.604961         0.297919
 H         0.440955         0.869708        -1.071871
 H        -0.467532        -0.685095        -0.835941
 H         1.293255         0.369704         2.339787
 H         0.330260        -1.214559         2.086159
 H         2.700277        -1.190379         3.382571
 H         2.290373        -2.437421         2.204221
 H         4.705244        -0.963020         2.005739
 H         4.364156         1.272484         0.438323
 H         4.311800        -1.336616        -0.878723
