19
Iteration:  4518charge 0 multiplicity 1
 C         0.123289         0.119205        -0.304547
 C         1.458684        -0.181359         0.364516
 C         1.215746        -0.840679         1.753264
 C         2.570638        -1.067570         2.399716
 C         3.758225        -0.905955         1.504600
 C         3.761076         0.316977         0.704966
 O         2.359603         0.945891         0.564651
 C         3.605900        -1.009490        -0.113704
 O         2.127491        -1.072468        -0.506928
 H        -0.305773         0.960827         0.210694
 H         0.174056         0.260714        -1.442602
 H        -0.531667        -0.720283        -0.078706
 H         0.621483        -0.246771         2.432777
 H         0.612086        -1.689037         1.598307
 H         2.666117        -0.239659         3.207710
 H         2.547579        -2.029296         2.919195
 H         4.788629        -1.060252         1.792829
 H         4.570199         1.076958         0.643711
 H         4.201398        -1.518923        -0.833625
