19
Iteration:   765
 C         0.127485         0.256133        -0.212239
 C         1.440176        -0.299170         0.367499
 C         1.273036        -1.268040         1.526264
 C         2.592015        -1.166551         2.416165
 C         3.736934        -0.800635         1.474117
 C         3.564078         0.492636         0.796358
 O         2.220002         0.850062         0.753615
 C         3.649980        -0.783462        -0.056760
 O         2.318025        -0.981137        -0.666207
 H        -0.458688         0.619974         0.699922
 H         0.312037         1.010393        -0.987406
 H        -0.547437        -0.434374        -0.699973
 H         0.530311        -1.009853         2.232593
 H         1.198180        -2.270518         0.981120
 H         2.509704        -0.396433         3.160695
 H         2.780034        -2.118806         2.843865
 H         4.760885        -0.908128         1.843182
 H         4.330923         1.341191         0.759477
 H         4.428687        -0.965150        -0.885294
