19
Iteration:   411
 C         0.144679         0.025180        -0.317760
 C         1.435904        -0.194605         0.401914
 C         1.312197        -0.909623         1.704306
 C         2.653664        -1.661011         2.042950
 C         3.828339        -0.788389         1.560567
 C         3.509179         0.556061         0.769003
 O         2.189225         1.065595         0.585836
 C         3.580311        -0.705284         0.056675
 O         2.283691        -1.025785        -0.398772
 H        -0.671271         0.423441         0.383330
 H         0.390910         0.818056        -1.054553
 H        -0.216803        -0.924120        -0.743481
 H         1.120212        -0.175113         2.475858
 H         0.470058        -1.600345         1.611057
 H         2.751273        -1.719260         3.180142
 H         2.674685        -2.691854         1.532309
 H         4.703705        -0.889540         2.025028
 H         4.338718         1.313046         0.724969
 H         4.356607        -1.104676        -0.651219
