19
Iteration:  2016
 C         0.186727         0.022363        -0.456344
 C         1.410619        -0.181320         0.399345
 C         1.281951        -0.814932         1.804565
 C         2.644816        -1.497487         2.224697
 C         3.755746        -0.827537         1.427629
 C         3.550268         0.506234         0.758902
 O         2.234614         1.051963         0.689093
 C         3.623366        -0.787764        -0.054207
 O         2.235765        -1.075809        -0.392710
 H        -0.562352         0.702171        -0.105126
 H         0.593138         0.518125        -1.380347
 H        -0.093582        -0.957402        -0.701673
 H         1.098633        -0.013678         2.491581
 H         0.554201        -1.696813         2.009017
 H         2.684391        -1.734522         3.286348
 H         2.555530        -2.442819         1.728228
 H         4.770096        -1.118753         1.837081
 H         4.217451         1.301704         0.825690
 H         4.269328        -1.256510        -0.895310
