19
Iteration:  3072
 C         0.207620         0.229855        -0.264447
 C         1.397882        -0.255650         0.397952
 C         1.232119        -1.104237         1.661296
 C         2.597607        -1.071377         2.449993
 C         3.770456        -0.841967         1.485580
 C         3.668629         0.424514         0.546180
 O         2.240471         0.950174         0.650416
 C         3.524349        -0.902327        -0.011035
 O         2.255446        -1.111960        -0.544482
 H        -0.035029         1.155531         0.312872
 H         0.598694         0.626272        -1.170505
 H        -0.595345        -0.530686        -0.387498
 H         0.376852        -0.690059         2.302290
 H         1.071067        -2.126278         1.421469
 H         2.626572        -0.344680         3.256716
 H         2.727938        -2.056537         2.926264
 H         4.725396        -1.170267         1.848847
 H         4.477195         1.164958         0.224802
 H         4.361496        -1.243261        -0.534359
