19
Iteration:   947
 C         0.173438         0.120900        -0.413242
 C         1.441929        -0.318327         0.361411
 C         1.304943        -1.064917         1.717563
 C         2.678484        -1.347050         2.401222
 C         3.727684        -0.820564         1.506712
 C         3.553069         0.412140         0.770825
 O         2.187239         0.906215         0.751683
 C         3.555096        -0.742374        -0.108856
 O         2.273654        -0.866795        -0.615447
 H        -0.551389         0.656210         0.254648
 H         0.538844         0.878735        -1.092393
 H        -0.261216        -0.809859        -0.759176
 H         0.732707        -0.354903         2.342344
 H         0.801507        -1.977319         1.681265
 H         2.809418        -0.791733         3.394772
 H         2.888869        -2.503499         2.504600
 H         4.780518        -0.927396         1.716990
 H         4.289476         1.292025         0.855115
 H         4.433307        -1.023115        -0.822189
