19
Iteration:   365
 C         0.224288         0.025129        -0.307858
 C         1.464584        -0.259416         0.387803
 C         1.254177        -0.948707         1.686692
 C         2.627274        -1.394689         2.247569
 C         3.770800        -0.969129         1.360252
 C         3.491457         0.485842         0.843123
 O         2.156238         0.963508         0.728425
 C         3.625351        -0.661306        -0.077245
 O         2.333673        -0.959212        -0.495801
 H        -0.512641         0.450034         0.405662
 H         0.383392         0.803716        -1.146032
 H        -0.272479        -0.904623        -0.696499
 H         0.911576        -0.092829         2.358271
 H         0.463047        -1.756095         1.680970
 H         2.763791        -0.856224         3.293719
 H         2.604470        -2.547758         2.313803
 H         4.822697        -1.301727         1.576827
 H         4.215006         1.345283         0.791412
 H         4.345045        -0.594874        -0.896555
