19
Iteration:  2995
 C         0.050386         0.116555        -0.251576
 C         1.444099        -0.155147         0.395861
 C         1.266680        -0.893358         1.696670
 C         2.593335        -1.222561         2.377536
 C         3.782241        -0.803804         1.497293
 C         3.643425         0.457252         0.700786
 O         2.315376         0.920681         0.502238
 C         3.599725        -0.961492         0.006291
 O         2.249544        -1.049343        -0.495759
 H        -0.673191         0.448218         0.533847
 H         0.199095         0.880390        -1.085711
 H        -0.173955        -0.852893        -0.723178
 H         0.418451        -0.348348         2.205863
 H         0.830988        -1.852775         1.482116
 H         2.715040        -0.935158         3.446851
 H         2.734007        -2.351593         2.334185
 H         4.681066        -1.257986         1.921132
 H         4.385806         1.232827         0.440223
 H         4.345896        -1.402155        -0.650668
