19
Iteration:   110
 C         0.179014         0.222909        -0.278845
 C         1.451175        -0.353245         0.383278
 C         1.217697        -1.079467         1.641367
 C         2.570915        -1.312546         2.265534
 C         3.750763        -0.753119         1.467453
 C         3.579069         0.519289         0.669266
 O         2.239705         0.882448         0.838636
 C         3.647551        -0.684370        -0.126261
 O         2.307016        -1.105956        -0.521408
 H        -0.302748         1.004643         0.301498
 H         0.433781         0.692902        -1.163662
 H        -0.488256        -0.563054        -0.407739
 H         0.601579        -0.391594         2.260242
 H         0.666679        -2.013003         1.463864
 H         2.549745        -0.847422         3.245187
 H         2.724864        -2.355229         2.508402
 H         4.719693        -1.028058         1.734417
 H         4.258875         1.429462         0.619130
 H         4.393714        -1.124850        -0.810117
