19
Iteration:  4313
 C         0.221835         0.304987        -0.383093
 C         1.408568        -0.282449         0.351959
 C         1.341135        -0.831990         1.789149
 C         2.655654        -1.145223         2.458210
 C         3.784056        -0.888694         1.485086
 C         3.560961         0.367763         0.594273
 O         2.225791         0.920278         0.465893
 C         3.516654        -1.046389         0.079401
 O         2.204899        -1.121279        -0.457759
 H        -0.020223         1.067230         0.295011
 H         0.623634         0.632708        -1.393152
 H        -0.541725        -0.444467        -0.388065
 H         0.707451        -0.119839         2.496110
 H         0.752889        -1.720092         1.702287
 H         2.804326        -0.639496         3.466050
 H         2.605078        -2.175484         2.831997
 H         4.808356        -1.054003         1.789653
 H         4.300707         1.107937         0.299037
 H         4.254836        -1.237420        -0.650041
