19
Iteration:   221
 C         0.180207         0.199721        -0.423523
 C         1.397923        -0.234733         0.398928
 C         1.326021        -1.062211         1.722935
 C         2.710939        -1.522014         2.217704
 C         3.790769        -0.868461         1.431117
 C         3.520507         0.573004         0.809622
 O         2.139073         1.033574         0.575115
 C         3.606190        -0.770778         0.001640
 O         2.279821        -1.026639        -0.374035
 H        -0.608897         0.587685         0.261933
 H         0.467640         1.028745        -1.030085
 H        -0.362170        -0.629685        -0.906942
 H         0.832616        -0.493084         2.565408
 H         0.491967        -1.767765         1.725221
 H         2.861013        -1.314722         3.272019
 H         2.837606        -2.631095         2.310224
 H         4.842908        -1.006387         1.929185
 H         4.227596         1.347272         0.565761
 H         4.371671        -1.056528        -0.725950
