19
Iteration:     5
 C         0.145272         0.164232        -0.285102
 C         1.464207        -0.261343         0.403998
 C         1.246273        -1.036522         1.681640
 C         2.688465        -1.367178         2.287358
 C         3.774093        -0.845024         1.461057
 C         3.548501         0.472398         0.756279
 O         2.235160         0.947122         0.712248
 C         3.588183        -0.750413        -0.087581
 O         2.293112        -0.992123        -0.510948
 H        -0.596619         0.722770         0.390146
 H         0.131154         0.664867        -1.285139
 H        -0.480976        -0.689956        -0.651942
 H         0.607337        -0.435817         2.355528
 H         0.732263        -1.948203         1.364992
 H         2.724308        -0.852616         3.249461
 H         2.762354        -2.478613         2.352236
 H         4.779715        -1.092765         1.709786
 H         4.216009         1.344544         0.632800
 H         4.274425        -1.079685        -0.860338
