19
Iteration:  1178charge 0 multiplicity 1
 C         0.149155         0.052794        -0.299703
 C         1.438626        -0.245262         0.359102
 C         1.280852        -1.035888         1.678390
 C         2.591301        -1.312536         2.417868
 C         3.809453        -0.801260         1.485199
 C         3.631538         0.433244         0.694564
 O         2.248602         0.899173         0.745146
 C         3.547168        -0.831820        -0.012193
 O         2.269760        -0.839902        -0.676547
 H        -0.549066         0.747308         0.200854
 H         0.185254         0.601816        -1.302317
 H        -0.412523        -0.936342        -0.361786
 H         0.447045        -0.442777         2.266141
 H         0.762266        -2.004288         1.555521
 H         2.757167        -0.692292         3.330676
 H         2.653539        -2.382282         2.410972
 H         4.858917        -1.004506         1.983257
 H         4.344621         1.254095         0.736235
 H         4.342318        -1.248614        -0.713699
