19
Iteration:  2152
 C         0.199273         0.340324        -0.276701
 C         1.450991        -0.253514         0.347304
 C         1.270484        -1.268958         1.606415
 C         2.616376        -1.097749         2.383071
 C         3.742182        -0.833895         1.465691
 C         3.596103         0.466006         0.670506
 O         2.252616         0.896073         0.743650
 C         3.541736        -0.866414        -0.073550
 O         2.270950        -1.078587        -0.484902
 H        -0.279171         1.071826         0.442228
 H         0.356638         0.839686        -1.300042
 H        -0.505332        -0.523964        -0.623346
 H         0.318724        -0.897891         2.066204
 H         1.034718        -2.304462         1.317901
 H         2.523923        -0.223813         3.128453
 H         2.835649        -2.011977         2.956270
 H         4.777044        -0.990165         1.837219
 H         4.330272         1.244233         0.478423
 H         4.283243        -1.172732        -0.826689
