19
Iteration:  2593charge 0 multiplicity 1
 C         0.181546         0.211290        -0.316946
 C         1.431301        -0.235296         0.348697
 C         1.268143        -1.139417         1.605385
 C         2.584543        -1.070355         2.471715
 C         3.793241        -0.800741         1.455545
 C         3.602174         0.407352         0.591611
 O         2.351361         0.920849         0.772868
 C         3.495315        -0.960653        -0.040350
 O         2.199019        -0.989882        -0.543344
 H        -0.336131         0.862959         0.326230
 H         0.414648         0.584001        -1.289749
 H        -0.511785        -0.587380        -0.460924
 H         0.418029        -1.007920         2.306337
 H         1.269297        -2.211979         1.327704
 H         2.719391        -0.227215         3.248755
 H         2.657436        -2.035311         2.933385
 H         4.791977        -0.903558         1.916091
 H         4.394712         1.179352         0.378725
 H         4.157967        -1.546273        -0.661685
