19
Iteration:  3190
 C         0.172057         0.148543        -0.422374
 C         1.391440        -0.215062         0.402057
 C         1.290785        -0.799516         1.838870
 C         2.615078        -1.348265         2.291773
 C         3.783371        -0.802228         1.498746
 C         3.591792         0.439211         0.640824
 O         2.274654         1.021057         0.514236
 C         3.615235        -0.892621         0.003281
 O         2.181152        -1.206579        -0.369556
 H        -0.621599         0.625342         0.222330
 H         0.492073         0.967400        -1.066730
 H        -0.207711        -0.694514        -1.034837
 H         1.014834         0.034702         2.586848
 H         0.665704        -1.747481         1.916280
 H         2.835909        -1.113773         3.338245
 H         2.534096        -2.475134         2.102666
 H         4.746977        -0.846922         1.971229
 H         4.528263         1.117454         0.469792
 H         4.254947        -1.316026        -0.772894
