19
Iteration:  2535charge 0 multiplicity 1
 C         0.119687         0.187360        -0.207090
 C         1.426979        -0.234951         0.331059
 C         1.264769        -0.993283         1.635535
 C         2.604022        -1.246450         2.380051
 C         3.804298        -0.811831         1.541625
 C         3.605596         0.426559         0.676930
 O         2.256129         0.925258         0.614103
 C         3.555297        -0.886125        -0.059952
 O         2.290561        -1.085527        -0.548354
 H        -0.217188         1.160303         0.189027
 H         0.288169         0.535908        -1.215367
 H        -0.628443        -0.659261        -0.139671
 H         0.757380        -0.167531         2.320741
 H         0.458017        -1.790135         1.537284
 H         2.671437        -0.683358         3.408158
 H         2.743413        -2.297422         2.656082
 H         4.841619        -0.973618         1.862275
 H         4.358801         1.166666         0.547426
 H         4.470343        -1.083412        -0.716142
