19
Iteration:  3121
 C         0.056073         0.106860        -0.284487
 C         1.490468        -0.243433         0.331884
 C         1.286278        -0.734644         1.790850
 C         2.578611        -1.358398         2.371886
 C         3.787428        -0.911618         1.526485
 C         3.593507         0.516861         0.620153
 O         2.262563         0.955970         0.505715
 C         3.593630        -0.882752        -0.004244
 O         2.301111        -1.082857        -0.471573
 H        -0.352686         0.995352         0.193719
 H         0.166685         0.289899        -1.426984
 H        -0.519582        -0.805091        -0.115711
 H         0.874992         0.032630         2.362898
 H         0.613466        -1.638515         1.686396
 H         2.528322        -1.104090         3.493356
 H         2.460518        -2.462633         2.281525
 H         4.784726        -1.328785         1.836456
 H         4.291375         1.284056         0.463294
 H         4.562440        -1.199393        -0.471278
