19
Iteration:   188charge 0 multiplicity 1
 C         0.153772         0.114561        -0.274723
 C         1.450454        -0.253550         0.481086
 C         1.190662        -0.869695         1.810790
 C         2.568157        -1.469678         2.080082
 C         3.781365        -0.757395         1.563605
 C         3.562951         0.544387         0.739272
 O         2.154077         0.909418         0.627577
 C         3.673277        -0.754209        -0.035041
 O         2.393169        -1.100620        -0.512230
 H        -0.386654         0.558117         0.574105
 H         0.455355         0.775760        -1.037203
 H        -0.302377        -0.738838        -0.752109
 H         0.916567         0.039658         2.399670
 H         0.452062        -1.668866         1.753914
 H         2.643074        -1.964665         3.016460
 H         2.501020        -2.231552         1.264809
 H         4.803368        -0.852252         2.058580
 H         4.165199         1.370433         0.378663
 H         4.487206        -0.936859        -0.791685
