19
Iteration:  4331
 C         0.185014         0.371918        -0.378733
 C         1.494386        -0.284249         0.412662
 C         1.210353        -0.874736         1.783759
 C         2.658253        -1.214303         2.436822
 C         3.772515        -0.679833         1.507532
 C         3.607977         0.411749         0.587851
 O         2.306602         0.880043         0.506516
 C         3.539380        -0.958297        -0.033054
 O         2.167400        -1.307927        -0.440158
 H        -0.173612         1.295342         0.174996
 H         0.576933         0.674436        -1.303487
 H        -0.691532        -0.302471        -0.592956
 H         0.713809        -0.051943         2.376111
 H         0.475820        -1.677271         1.893786
 H         2.853943        -0.777535         3.419863
 H         2.657025        -2.312534         2.568282
 H         4.826605        -0.934998         1.767053
 H         4.319011         1.236353         0.491802
 H         4.299886        -1.637147        -0.577903
