19
Iteration:  4177
 C         0.149455         0.110833        -0.347124
 C         1.490241        -0.205607         0.344528
 C         1.252018        -0.793733         1.769931
 C         2.564387        -1.160500         2.443799
 C         3.808167        -0.908608         1.482928
 C         3.682070         0.372015         0.617261
 O         2.348865         0.973843         0.557595
 C         3.517344        -0.961882        -0.062994
 O         2.165659        -1.106338        -0.436020
 H        -0.379729         0.974265         0.047716
 H         0.242869         0.240679        -1.425422
 H        -0.461035        -0.795533        -0.272169
 H         0.767959         0.006137         2.417849
 H         0.487401        -1.630866         1.641421
 H         2.796861        -0.608098         3.343728
 H         2.633372        -2.226388         2.715541
 H         4.765099        -1.212100         1.882136
 H         4.255124         1.297294         0.554315
 H         4.156762        -1.412019        -0.747649
