19
Iteration:   978charge 0 multiplicity 1
 C         0.219530         0.175058        -0.381496
 C         1.409722        -0.265051         0.407061
 C         1.209660        -1.200680         1.554755
 C         2.677827        -1.210549         2.279031
 C         3.789495        -0.841960         1.405755
 C         3.563295         0.476790         0.695370
 O         2.208493         0.922923         0.910427
 C         3.565170        -0.751709        -0.052974
 O         2.276307        -0.996129        -0.454003
 H        -0.464300         0.777644         0.276329
 H         0.592519         0.670391        -1.286618
 H        -0.455091        -0.647161        -0.744086
 H         0.566366        -0.704687         2.302303
 H         1.094292        -2.170348         1.159567
 H         2.709178        -0.436270         3.060369
 H         2.624970        -2.157502         2.753061
 H         4.830249        -1.121673         1.675708
 H         4.265610         1.320894         0.598745
 H         4.318075        -0.997544        -0.891795
