19
Iteration:   219charge 0 multiplicity 1
 C         0.165912         0.215841        -0.432537
 C         1.419789        -0.241667         0.401560
 C         1.325014        -1.057409         1.725139
 C         2.708080        -1.530028         2.189480
 C         3.781007        -0.858483         1.439309
 C         3.507062         0.564818         0.813081
 O         2.139709         1.029473         0.581141
 C         3.623469        -0.753466         0.004940
 O         2.273527        -1.054813        -0.366550
 H        -0.558472         0.564174         0.347734
 H         0.432096         1.005446        -1.031699
 H        -0.327013        -0.567960        -0.897949
 H         0.913240        -0.430217         2.542372
 H         0.485219        -1.748609         1.770633
 H         2.801825        -1.315132         3.298877
 H         2.845312        -2.596808         2.240360
 H         4.798740        -0.930239         1.905036
 H         4.257891         1.397024         0.519582
 H         4.429410        -1.099781        -0.734705
