19
Iteration:  3022charge 0 multiplicity 1
 C         0.247881         0.180899        -0.390424
 C         1.424220        -0.270622         0.389732
 C         1.270413        -1.071298         1.762047
 C         2.610181        -1.112103         2.473318
 C         3.749749        -0.876154         1.422117
 C         3.551387         0.445155         0.616378
 O         2.317378         0.998523         0.707104
 C         3.521235        -0.924949        -0.080426
 O         2.190652        -1.075209        -0.506822
 H        -0.456619         0.641617         0.284448
 H         0.580009         0.990807        -1.024040
 H        -0.005284        -0.745281        -0.907784
 H         0.494040        -0.521890         2.239649
 H         0.956270        -2.152569         1.555696
 H         2.694432        -0.203758         3.149689
 H         2.793278        -1.925236         3.155069
 H         4.734299        -1.237648         1.764912
 H         4.335883         1.062470         0.215932
 H         4.297405        -1.188804        -0.863107
