19
Iteration:  1494
 C         0.168024         0.238149        -0.323425
 C         1.449944        -0.220427         0.400153
 C         1.251083        -1.113522         1.706546
 C         2.688718        -1.306266         2.342440
 C         3.776486        -0.856742         1.459537
 C         3.553932         0.461043         0.755966
 O         2.220191         0.970537         0.630796
 C         3.569588        -0.792210        -0.059802
 O         2.271027        -1.055506        -0.524120
 H        -0.477037         0.640800         0.454719
 H         0.386686         0.757247        -1.218070
 H        -0.354813        -0.693138        -0.689401
 H         0.513839        -0.609860         2.413110
 H         0.853395        -1.956980         1.273149
 H         2.718684        -0.459765         3.147127
 H         2.744592        -2.344737         2.903138
 H         4.756309        -1.024463         1.878456
 H         4.294305         1.304027         0.727073
 H         4.269072        -1.227825        -0.889605
