19
Iteration:  1531
 C         0.122227        -0.055189        -0.318543
 C         1.429329        -0.188279         0.335610
 C         1.239731        -0.830661         1.768567
 C         2.571430        -1.403679         2.271186
 C         3.755350        -0.831832         1.493704
 C         3.612593         0.519666         0.744304
 O         2.301544         0.950113         0.721544
 C         3.589655        -0.871633        -0.073881
 O         2.306883        -0.906664        -0.602122
 H        -0.671369         0.436112         0.312523
 H        -0.010142         0.573255        -1.283020
 H        -0.155954        -1.097974        -0.341648
 H         0.894517        -0.173453         2.500643
 H         0.460441        -1.683671         1.889938
 H         2.792706        -1.030097         3.314473
 H         2.693712        -2.508196         2.271733
 H         4.814128        -1.170402         1.734974
 H         4.328585         1.297156         0.772409
 H         4.335886        -1.442277        -0.654108
