19
Iteration:  1236charge 0 multiplicity 1
 C         0.217058         0.324364        -0.370777
 C         1.380095        -0.245199         0.417861
 C         1.275261        -1.235019         1.620017
 C         2.658662        -1.275323         2.369538
 C         3.790413        -0.727389         1.474738
 C         3.599122         0.485341         0.626878
 O         2.227976         0.890188         0.745491
 C         3.512587        -0.790620        -0.058933
 O         2.251677        -1.083900        -0.455634
 H        -0.309459         0.868792         0.424805
 H         0.657688         0.835756        -1.191190
 H        -0.586765        -0.350151        -0.747430
 H         0.511669        -0.850273         2.225367
 H         1.058287        -2.203689         1.076552
 H         2.487721        -0.689382         3.315254
 H         3.030606        -2.294412         2.807290
 H         4.764507        -0.974304         1.773054
 H         4.281710         1.327966         0.502031
 H         4.285507        -1.061849        -0.685587
