19
Iteration:  2493
 C         0.229000         0.166113        -0.397492
 C         1.438801        -0.178739         0.464721
 C         1.273352        -0.849854         1.758032
 C         2.625425        -1.523420         2.220847
 C         3.803093        -0.811100         1.464022
 C         3.490311         0.478316         0.675255
 O         2.241746         1.044876         0.506532
 C         3.573288        -0.829826         0.002590
 O         2.253876        -1.169409        -0.313854
 H        -0.597432         0.724031         0.056911
 H         0.526539         0.739147        -1.209397
 H        -0.322041        -0.788069        -0.628334
 H         1.084245        -0.008514         2.512694
 H         0.450369        -1.562317         1.929918
 H         2.705550        -1.269262         3.403814
 H         2.735650        -2.567126         2.155040
 H         4.801527        -0.776949         1.959349
 H         4.307285         1.125377         0.520777
 H         4.235429        -1.097094        -0.952778
