19
Iteration:  2860charge 0 multiplicity 1
 C         0.084572         0.266584        -0.209264
 C         1.468370        -0.238078         0.280841
 C         1.277254        -1.067114         1.673578
 C         2.599056        -1.164263         2.497268
 C         3.793618        -0.831968         1.477073
 C         3.633784         0.435934         0.647748
 O         2.236321         0.951518         0.536193
 C         3.583218        -0.951132         0.027130
 O         2.286398        -1.064240        -0.571760
 H        -0.370749         0.869259         0.621843
 H        -0.010480         0.985056        -0.997691
 H        -0.543979        -0.619707        -0.535887
 H         0.521095        -0.499233         2.222064
 H         0.922180        -2.115366         1.359165
 H         2.564515        -0.519949         3.330358
 H         2.835018        -2.203966         2.958019
 H         4.732701        -1.176565         1.784470
 H         4.475672         1.172641         0.589541
 H         4.292352        -1.542207        -0.420341
