19
Iteration:  3265
 C         0.233834         0.213513        -0.350823
 C         1.420930        -0.239134         0.442308
 C         1.292675        -1.106186         1.669449
 C         2.603649        -1.019818         2.434717
 C         3.764972        -0.832566         1.504296
 C         3.626854         0.370785         0.595103
 O         2.337369         0.919335         0.647507
 C         3.483085        -0.972724        -0.069032
 O         2.142572        -1.039399        -0.477919
 H        -0.285241         1.131834         0.087588
 H         0.596812         0.400865        -1.374534
 H        -0.516350        -0.618660        -0.274705
 H         0.551199        -0.693552         2.242906
 H         1.223574        -2.196600         1.349397
 H         2.479263        -0.047247         2.990764
 H         2.969849        -1.898204         3.016066
 H         4.741699        -1.060225         1.934486
 H         4.320078         1.310663         0.529727
 H         4.181777        -1.432320        -0.840491
