19
Iteration:    90
 C         0.196121         0.339036        -0.289213
 C         1.429384        -0.225563         0.341299
 C         1.228061        -1.222206         1.555417
 C         2.669917        -1.195826         2.308693
 C         3.876900        -0.799369         1.418896
 C         3.515041         0.492433         0.777075
 O         2.131635         0.896646         0.742488
 C         3.574968        -0.876869        -0.009145
 O         2.286541        -1.100485        -0.477550
 H        -0.092343         1.026327         0.594782
 H         0.586240         0.969072        -1.073031
 H        -0.474155        -0.503384        -0.556094
 H         0.471782        -0.919037         2.319788
 H         1.040477        -2.190960         1.113028
 H         2.677337        -0.618788         3.203959
 H         2.820238        -2.272488         2.635320
 H         4.899330        -0.860494         1.735627
 H         4.182533         1.352876         0.444424
 H         4.364352        -0.921752        -0.804503
