19
Iteration:  4982
 C         0.240318         0.148813        -0.348828
 C         1.452724        -0.212776         0.463693
 C         1.155222        -0.813903         1.811400
 C         2.580217        -1.224769         2.283281
 C         3.820012        -0.810923         1.461615
 C         3.697239         0.416364         0.527098
 O         2.310979         0.968353         0.554592
 C         3.540205        -1.013306         0.004688
 O         2.166011        -1.100150        -0.367927
 H        -0.530887         0.607881         0.315972
 H         0.509551         0.790733        -1.156380
 H        -0.169642        -0.861231        -0.579936
 H         0.536892        -0.144847         2.463923
 H         0.582657        -1.686594         1.624310
 H         2.849812        -0.852587         3.316343
 H         2.598836        -2.284040         2.384093
 H         4.657996        -1.122013         2.030886
 H         4.379917         1.130361         0.074417
 H         4.180155        -1.396064        -0.808602
