19
Iteration:  2718
 C         0.174705         0.129548        -0.362707
 C         1.514452        -0.286835         0.378755
 C         1.336650        -0.747889         1.864136
 C         2.580118        -1.506558         2.226681
 C         3.732597        -0.777838         1.535807
 C         3.526323         0.452852         0.707544
 O         2.205866         1.003868         0.486023
 C         3.576628        -0.826641        -0.041964
 O         2.298757        -1.132264        -0.401967
 H        -0.181069         1.053107         0.251304
 H         0.246644         0.583584        -1.370033
 H        -0.655500        -0.693510        -0.389460
 H         1.364399         0.089025         2.536629
 H         0.544671        -1.403004         2.142256
 H         2.586374        -1.602971         3.300997
 H         2.578195        -2.616011         1.786383
 H         4.685955        -0.880684         2.040043
 H         4.143046         1.299871         0.574088
 H         4.373777        -1.071897        -0.833250
