19
Iteration:  3282charge 0 multiplicity 1
 C         0.221910         0.295895        -0.339106
 C         1.406656        -0.336308         0.364016
 C         1.214697        -1.137118         1.802220
 C         2.636384        -0.974832         2.456160
 C         3.809369        -0.839530         1.411215
 C         3.652397         0.420977         0.579463
 O         2.248673         0.880677         0.702117
 C         3.554004        -0.923912        -0.027946
 O         2.209592        -1.111352        -0.524959
 H         0.070897         1.249218         0.076389
 H         0.470215         0.534995        -1.423555
 H        -0.700192        -0.208197        -0.543538
 H         0.312078        -0.694451         2.453116
 H         0.890734        -2.070958         1.383240
 H         2.579905        -0.114573         3.108479
 H         2.616549        -1.876639         3.053285
 H         4.860436        -1.066713         1.680372
 H         4.375000         1.103043         0.151722
 H         4.303935        -1.291351        -0.636871
