19
Iteration:  4252
 C         0.147799         0.213843        -0.347479
 C         1.411187        -0.218133         0.367332
 C         1.264039        -0.874512         1.750460
 C         2.619483        -1.038409         2.510261
 C         3.770503        -0.910717         1.508711
 C         3.684445         0.296086         0.637186
 O         2.327263         0.952992         0.565815
 C         3.538647        -1.040028        -0.042887
 O         2.197413        -1.090909        -0.556416
 H        -0.501533         0.764526         0.353529
 H         0.156720         0.760079        -1.311737
 H        -0.381023        -0.741514        -0.548920
 H         0.772395        -0.287904         2.451885
 H         0.642683        -1.852652         1.691933
 H         2.763971        -0.182976         3.094536
 H         2.440754        -1.967778         3.063401
 H         4.817543        -0.982054         1.749466
 H         4.474381         1.011056         0.404139
 H         4.246287        -1.510752        -0.621870
