19
Iteration:  2978charge 0 multiplicity 1
 C         0.095794         0.125065        -0.217175
 C         1.492182        -0.190804         0.302139
 C         1.275385        -0.790325         1.723223
 C         2.592557        -1.382801         2.298084
 C         3.764810        -0.861537         1.550480
 C         3.556966         0.447405         0.703388
 O         2.278116         1.015808         0.448787
 C         3.584719        -0.848219         0.041107
 O         2.301901        -1.189224        -0.469165
 H        -0.436038         0.581966         0.636656
 H        -0.012235         0.836812        -0.975661
 H        -0.369252        -0.836309        -0.469146
 H         0.960461        -0.025829         2.408857
 H         0.480696        -1.549791         1.475647
 H         2.659165        -1.072817         3.364619
 H         2.577688        -2.450790         2.338686
 H         4.794137        -0.858962         1.839070
 H         4.427312         1.130519         0.657219
 H         4.349898        -1.023189        -0.687402
