19
Iteration:  4458charge 0 multiplicity 1
 C         0.203045         0.291837        -0.418932
 C         1.412045        -0.131796         0.480164
 C         1.249944        -0.858659         1.818487
 C         2.621924        -1.292856         2.359898
 C         3.770054        -0.785628         1.478598
 C         3.628312         0.396044         0.528499
 O         2.284674         0.936906         0.400765
 C         3.554661        -0.986342         0.072819
 O         2.175159        -1.146021        -0.306970
 H        -0.444614         1.027612         0.158460
 H         0.598732         0.753556        -1.278245
 H        -0.345925        -0.662035        -0.631162
 H         0.719442        -0.423085         2.695792
 H         0.835433        -1.884945         1.524170
 H         2.673629        -1.013800         3.373851
 H         2.797853        -2.406408         2.329743
 H         4.789017        -1.095960         1.865926
 H         4.453281         1.027182         0.242347
 H         4.338351        -1.618398        -0.530952
