19
Iteration:   608charge 0 multiplicity 1
 C         0.172166        -0.023686        -0.409471
 C         1.451674        -0.283066         0.410598
 C         1.280155        -0.961567         1.793405
 C         2.639718        -1.409138         2.184020
 C         3.770241        -0.803572         1.492816
 C         3.570130         0.505584         0.801638
 O         2.170135         0.916955         0.788846
 C         3.602542        -0.719783        -0.024726
 O         2.288352        -0.886416        -0.612753
 H        -0.543259         0.606234         0.146319
 H         0.442030         0.552133        -1.316275
 H        -0.305874        -0.857689        -0.967921
 H         0.942819        -0.082537         2.426241
 H         0.415517        -1.654692         2.169508
 H         2.744716        -1.404354         3.251807
 H         2.658114        -2.415605         1.889046
 H         4.772691        -1.139252         1.698839
 H         4.408500         1.266214         0.773224
 H         4.345532        -1.064429        -0.778162
