19
Iteration:  3382
 C         0.123477         0.101157        -0.363389
 C         1.383691        -0.205494         0.423239
 C         1.303138        -0.661162         1.840216
 C         2.578094        -1.406566         2.319041
 C         3.762350        -0.850920         1.462328
 C         3.606674         0.478344         0.659205
 O         2.247052         0.908359         0.491720
 C         3.619546        -0.855912        -0.081110
 O         2.323815        -1.197643        -0.363127
 H        -0.623066         0.611779         0.278880
 H         0.387513         0.893010        -1.086993
 H        -0.453375        -0.669522        -0.843732
 H         1.284028         0.400109         2.337234
 H         0.365828        -1.214612         2.112289
 H         2.694630        -1.166605         3.374112
 H         2.303189        -2.446722         2.173307
 H         4.722127        -0.985256         1.974965
 H         4.413716         1.273954         0.450687
 H         4.309021        -1.324837        -0.858183
