19
Iteration:  1618charge 0 multiplicity 1
 C         0.159926         0.143964        -0.318487
 C         1.455893        -0.216801         0.365937
 C         1.199304        -0.937049         1.717749
 C         2.677573        -1.428555         2.291883
 C         3.766495        -0.777606         1.440098
 C         3.570469         0.530542         0.713570
 O         2.218326         0.945924         0.657465
 C         3.591143        -0.838077        -0.002493
 O         2.290558        -1.060340        -0.477428
 H        -0.335129         0.913865         0.292337
 H         0.540438         0.505935        -1.343269
 H        -0.330163        -0.799839        -0.501768
 H         0.819969        -0.147047         2.296481
 H         0.524898        -1.772648         1.645349
 H         2.679927        -1.230034         3.409239
 H         2.760577        -2.568364         2.328137
 H         4.763153        -1.097108         1.878820
 H         4.218635         1.367506         0.433097
 H         4.222862        -1.110690        -0.731452
