19
Iteration:  1604charge 0 multiplicity 1
 C         0.230680         0.218994        -0.355871
 C         1.432633        -0.287279         0.387003
 C         1.277888        -0.938048         1.747544
 C         2.591141        -1.467471         2.227749
 C         3.853126        -0.690654         1.579074
 C         3.538916         0.532423         0.611212
 O         2.191275         0.905554         0.644271
 C         3.602853        -0.816012         0.012052
 O         2.240054        -1.125962        -0.453783
 H        -0.425395         0.889077         0.228984
 H         0.331613         0.821665        -1.253273
 H        -0.517232        -0.549955        -0.461982
 H         0.853761        -0.186377         2.536365
 H         0.480298        -1.637758         1.701909
 H         2.753657        -1.425377         3.332748
 H         2.722586        -2.444356         1.681632
 H         4.873726        -0.779774         1.828814
 H         4.242238         1.323950         0.552547
 H         4.512706        -1.167139        -0.612699
