19
Iteration:  2287
 C         0.088181         0.204952        -0.273553
 C         1.444346        -0.215070         0.409119
 C         1.231293        -0.886141         1.723091
 C         2.612979        -1.404567         2.292052
 C         3.726611        -0.805869         1.473086
 C         3.576671         0.488390         0.775177
 O         2.274526         0.932559         0.485424
 C         3.683592        -0.825654        -0.040829
 O         2.284049        -1.148381        -0.457900
 H        -0.543653         0.677995         0.503352
 H         0.373267         0.820494        -1.125358
 H        -0.499445        -0.686195        -0.573561
 H         0.925498        -0.065397         2.325033
 H         0.496642        -1.621083         1.769375
 H         2.756076        -1.245433         3.299542
 H         2.709814        -2.538843         2.150581
 H         4.703917        -0.861220         1.875519
 H         4.332364         1.360088         0.754532
 H         4.502678        -1.117963        -0.637208
