19
Iteration:  3786charge 0 multiplicity 1
 C         0.130212         0.146326        -0.217255
 C         1.491875        -0.210401         0.352526
 C         1.215196        -0.913031         1.704801
 C         2.549739        -1.086182         2.457239
 C         3.783809        -0.878517         1.462747
 C         3.623859         0.318354         0.634083
 O         2.330553         0.930207         0.515991
 C         3.613780        -0.974133        -0.031091
 O         2.227044        -1.033794        -0.528748
 H        -0.198986         0.974556         0.431830
 H         0.094267         0.576429        -1.245275
 H        -0.592607        -0.638070        -0.096769
 H         0.498838        -0.185861         2.363600
 H         0.626138        -1.790521         1.537169
 H         2.632449        -0.487843         3.370796
 H         2.713294        -2.114066         2.753212
 H         4.781902        -1.044195         1.941390
 H         4.473215         1.036975         0.551514
 H         4.210392        -1.555901        -0.684742
