19
Iteration:  3073
 C         0.215793         0.225063        -0.259982
 C         1.393177        -0.248477         0.396800
 C         1.235474        -1.100987         1.662785
 C         2.590406        -1.078671         2.447954
 C         3.764609        -0.837041         1.492396
 C         3.665165         0.428993         0.547203
 O         2.245399         0.947019         0.642139
 C         3.523851        -0.899944        -0.010159
 O         2.256663        -1.112171        -0.544433
 H        -0.057475         1.151624         0.336990
 H         0.601227         0.603205        -1.167450
 H        -0.606505        -0.543159        -0.341483
 H         0.383339        -0.682123         2.279726
 H         1.092741        -2.102858         1.399353
 H         2.648260        -0.340375         3.283576
 H         2.726596        -2.067257         2.896450
 H         4.729142        -1.193822         1.826088
 H         4.473644         1.177679         0.245836
 H         4.367704        -1.285136        -0.564373
