19
Iteration:  3772
 C         0.186753         0.241295        -0.174143
 C         1.493225        -0.185929         0.375815
 C         1.288324        -0.961541         1.677039
 C         2.599278        -1.128988         2.477762
 C         3.679636        -0.846660         1.555550
 C         3.628114         0.395245         0.549172
 O         2.338854         0.953098         0.524706
 C         3.481027        -1.054949         0.009898
 O         2.211894        -1.087588        -0.577098
 H        -0.357482         0.981179         0.527419
 H         0.427301         0.464687        -1.192096
 H        -0.328321        -0.757600        -0.273187
 H         0.418681        -0.593182         2.239485
 H         1.140021        -2.008848         1.252518
 H         2.656796        -0.290154         3.171530
 H         2.488805        -2.054360         3.026065
 H         4.738033        -1.003178         1.843422
 H         4.426822         1.162364         0.299512
 H         4.357932        -1.306842        -0.630269
