19
Iteration:  4214charge 0 multiplicity 1
 C         0.278169         0.357490        -0.362611
 C         1.467657        -0.215096         0.395719
 C         1.231432        -1.010858         1.797538
 C         2.593790        -1.138809         2.397630
 C         3.838835        -0.777932         1.480750
 C         3.563218         0.397875         0.523988
 O         2.266675         0.952396         0.510832
 C         3.546421        -1.016065        -0.004090
 O         2.154759        -1.241842        -0.387421
 H        -0.270169         0.977618         0.383697
 H         0.708223         1.017572        -1.125351
 H        -0.400664        -0.450924        -0.705532
 H         0.496138        -0.265611         2.279879
 H         0.753904        -1.931119         1.720142
 H         2.458785        -0.407514         3.313548
 H         2.792755        -2.108668         2.934751
 H         4.841112        -0.814208         1.969807
 H         4.465671         0.968448         0.347995
 H         4.231188        -1.577837        -0.759410
