19
Iteration:  3773charge 0 multiplicity 1
 C         0.191321         0.234536        -0.166267
 C         1.492196        -0.189145         0.368891
 C         1.281957        -0.952136         1.679219
 C         2.595472        -1.127574         2.472410
 C         3.685909        -0.855236         1.554254
 C         3.614191         0.392185         0.549908
 O         2.345030         0.949901         0.524899
 C         3.489550        -1.054989         0.010227
 O         2.214267        -1.081458        -0.577907
 H        -0.368689         0.973055         0.499934
 H         0.406602         0.468064        -1.201538
 H        -0.331529        -0.749721        -0.252381
 H         0.373646        -0.570446         2.268136
 H         1.117857        -1.979794         1.266953
 H         2.645462        -0.303405         3.185440
 H         2.529206        -2.058299         3.009384
 H         4.759629        -0.977157         1.855843
 H         4.418931         1.182530         0.303343
 H         4.350415        -1.308226        -0.631734
