19
Iteration:  2655charge 0 multiplicity 1
 C         0.126230         0.140965        -0.314334
 C         1.409584        -0.143488         0.391552
 C         1.325911        -0.927651         1.760696
 C         2.598007        -1.338092         2.320455
 C         3.766050        -0.843641         1.534019
 C         3.628004         0.531557         0.634091
 O         2.277914         0.963156         0.605034
 C         3.574478        -0.902823        -0.001630
 O         2.252546        -1.109787        -0.528860
 H        -0.722996         0.562705         0.321601
 H         0.438098         0.881135        -1.043504
 H        -0.214761        -0.889995        -0.730870
 H         0.693319        -0.184762         2.345667
 H         0.579714        -1.720736         1.692544
 H         2.631947        -0.932336         3.335327
 H         2.608026        -2.408212         2.545985
 H         4.808269        -1.072608         1.726420
 H         4.317017         1.345215         0.414463
 H         4.295141        -1.488991        -0.641349
