19
Iteration:  4594charge 0 multiplicity 1
 C         0.232982         0.290870        -0.300935
 C         1.468331        -0.256040         0.373416
 C         1.199564        -0.849368         1.758806
 C         2.576450        -0.995813         2.352168
 C         3.785745        -0.942437         1.449420
 C         3.544043         0.397173         0.526799
 O         2.300698         0.875383         0.680080
 C         3.578708        -1.022158        -0.086020
 O         2.244972        -1.179740        -0.428605
 H        -0.264354         0.951297         0.438833
 H         0.503728         0.870595        -1.241513
 H        -0.423464        -0.535377        -0.610484
 H         0.437554        -0.297955         2.286371
 H         0.721442        -1.864338         1.630985
 H         2.706897        -0.204503         3.148912
 H         2.682749        -1.902805         2.917004
 H         4.780090        -1.242700         1.762665
 H         4.264169         1.226060         0.585344
 H         4.289252        -1.661149        -0.741196
