19
Iteration:   462
 C         0.161038         0.175125        -0.307870
 C         1.477808        -0.278724         0.313677
 C         1.348998        -1.063599         1.643860
 C         2.620799        -1.475655         2.317259
 C         3.821297        -0.754764         1.528162
 C         3.482533         0.536689         0.743008
 O         2.150286         0.909140         0.731329
 C         3.620665        -0.798109        -0.003762
 O         2.274910        -0.946166        -0.569137
 H        -0.411644         0.927118         0.182254
 H         0.421319         0.590394        -1.318741
 H        -0.523268        -0.662360        -0.422014
 H         0.931039        -0.301082         2.375013
 H         0.642194        -1.935815         1.465219
 H         2.605576        -1.158911         3.367799
 H         2.797265        -2.441540         2.031979
 H         4.771000        -1.106735         2.018391
 H         4.152858         1.461735         0.692952
 H         4.468626        -0.925566        -0.713356
