19
Iteration:  4253
 C         0.144688         0.205663        -0.346316
 C         1.411283        -0.220888         0.368432
 C         1.264389        -0.871550         1.732485
 C         2.613940        -1.042172         2.512421
 C         3.768591        -0.913422         1.507497
 C         3.685528         0.290300         0.628594
 O         2.333779         0.958337         0.572923
 C         3.538115        -1.038361        -0.042331
 O         2.199081        -1.082252        -0.548242
 H        -0.496856         0.759122         0.382814
 H         0.177410         0.720766        -1.286056
 H        -0.364697        -0.776364        -0.526339
 H         0.763214        -0.272643         2.489284
 H         0.612708        -1.820168         1.671221
 H         2.749809        -0.162338         3.061031
 H         2.447642        -1.952333         3.057083
 H         4.822522        -0.969064         1.766175
 H         4.455400         1.016341         0.380365
 H         4.249140        -1.534397        -0.640119
