19
Iteration:  2435
 C         0.132208         0.010048        -0.278497
 C         1.478034        -0.118991         0.390072
 C         1.300794        -0.822409         1.730718
 C         2.561394        -1.413010         2.332425
 C         3.736275        -0.870738         1.528515
 C         3.622998         0.501055         0.681430
 O         2.302201         1.031584         0.541723
 C         3.530620        -0.862387        -0.048257
 O         2.270490        -1.070391        -0.475418
 H        -0.498116         0.472047         0.512194
 H         0.078691         0.652553        -1.259606
 H        -0.151764        -0.964986        -0.629620
 H         0.787787        -0.000366         2.394370
 H         0.495606        -1.657132         1.616584
 H         2.735112        -1.313609         3.470192
 H         2.572109        -2.523000         2.086823
 H         4.745122        -1.151640         1.705984
 H         4.504526         1.203049         0.693426
 H         4.280119        -1.225748        -0.605093
