19
Iteration:  2657charge 0 multiplicity 1
 C         0.115443         0.128728        -0.323142
 C         1.410745        -0.148080         0.394487
 C         1.317660        -0.909488         1.748055
 C         2.612899        -1.361718         2.317726
 C         3.778833        -0.853380         1.547776
 C         3.619233         0.534403         0.624875
 O         2.299129         0.971058         0.615820
 C         3.564067        -0.905548         0.002065
 O         2.236593        -1.103332        -0.522174
 H        -0.704110         0.482500         0.236773
 H         0.432719         0.789127        -1.106007
 H        -0.211761        -0.817825        -0.713789
 H         0.707846        -0.121143         2.330019
 H         0.551371        -1.720686         1.698702
 H         2.625754        -0.959430         3.372906
 H         2.637846        -2.381743         2.463960
 H         4.833296        -0.970091         1.735737
 H         4.351889         1.372445         0.410570
 H         4.237217        -1.429366        -0.584922
