19
Iteration:  1194charge 0 multiplicity 1
 C         0.171768         0.163161        -0.374176
 C         1.464806        -0.282846         0.371058
 C         1.238988        -1.081022         1.650342
 C         2.661746        -1.198293         2.404558
 C         3.775115        -0.855214         1.445780
 C         3.547029         0.499128         0.766375
 O         2.227412         0.871083         0.842023
 C         3.591035        -0.786186        -0.143257
 O         2.253182        -0.991276        -0.597932
 H        -0.261127         0.921939         0.294329
 H         0.487205         0.603179        -1.290272
 H        -0.415309        -0.679424        -0.656372
 H         0.617822        -0.553953         2.285574
 H         0.738295        -2.058006         1.447205
 H         2.664516        -0.709921         3.385319
 H         2.823219        -2.209116         2.935844
 H         4.724197        -1.202401         1.584287
 H         4.244958         1.315440         0.563076
 H         4.336732        -1.063655        -0.815204
