19
Iteration:  2327
 C         0.140096         0.135868        -0.246897
 C         1.505640        -0.187005         0.329400
 C         1.342714        -1.081466         1.649580
 C         2.595143        -1.169053         2.420796
 C         3.712514        -0.830759         1.485805
 C         3.598791         0.363086         0.732731
 O         2.303969         0.966597         0.652185
 C         3.533231        -0.882837        -0.064309
 O         2.219059        -0.980025        -0.573682
 H        -0.509431         0.877036         0.236162
 H         0.473849         0.540043        -1.274101
 H        -0.301218        -0.838470        -0.287811
 H         0.513322        -0.502196         2.200566
 H         0.848435        -2.040395         1.283787
 H         2.508617        -0.491713         3.363917
 H         2.641621        -2.141451         2.823038
 H         4.724911        -1.162202         1.722845
 H         4.404161         1.107818         0.722358
 H         4.249096        -1.357688        -0.649994
