19
Iteration:  4151
 C         0.149665         0.099886        -0.295358
 C         1.500890        -0.214401         0.374034
 C         1.342805        -0.679882         1.940753
 C         2.583570        -1.229731         2.486446
 C         3.655589        -0.958726         1.451725
 C         3.564030         0.352041         0.684303
 O         2.281870         0.939245         0.420096
 C         3.519768        -0.961273        -0.032153
 O         2.307139        -1.043322        -0.596661
 H        -0.336521         1.064465        -0.078089
 H         0.378635         0.151145        -1.419184
 H        -0.611427        -0.691013        -0.263778
 H         0.980515         0.164152         2.473357
 H         0.529809        -1.460186         1.885361
 H         2.981154        -0.930208         3.435814
 H         2.610897        -2.329432         2.646090
 H         4.706599        -1.049945         1.798051
 H         4.176767         1.256734         0.653510
 H         4.421952        -1.461939        -0.547923
