19
Iteration:  4497charge 0 multiplicity 1
 C         0.146703         0.202907        -0.299772
 C         1.426584        -0.239440         0.338306
 C         1.230288        -0.770555         1.800776
 C         2.616172        -1.112615         2.401818
 C         3.740717        -0.968278         1.458579
 C         3.613821         0.367194         0.568546
 O         2.300174         0.880528         0.622537
 C         3.587806        -0.942918        -0.019197
 O         2.288045        -1.144795        -0.485112
 H        -0.298034         1.061004         0.155320
 H         0.353834         0.475607        -1.384920
 H        -0.637494        -0.531872        -0.383361
 H         0.640005         0.076504         2.280586
 H         0.530748        -1.519430         1.897107
 H         2.932694        -0.403719         3.271848
 H         2.374575        -2.056560         2.831995
 H         4.758802        -1.326373         1.581694
 H         4.287177         1.218416         0.334046
 H         4.363158        -1.266823        -0.687124
