19
Iteration:  4989charge 0 multiplicity 1
 C         0.235101         0.149310        -0.272001
 C         1.423423        -0.206333         0.397365
 C         1.160077        -0.813261         1.769133
 C         2.606773        -1.211548         2.290588
 C         3.811614        -0.835706         1.463580
 C         3.653041         0.442286         0.575308
 O         2.323669         0.989794         0.527565
 C         3.550186        -0.987344         0.035858
 O         2.148361        -1.158863        -0.376501
 H        -0.463441         0.618610         0.355658
 H         0.613112         0.747585        -1.168887
 H        -0.156863        -0.723192        -0.751111
 H         0.641284         0.007471         2.400351
 H         0.577924        -1.721190         1.645906
 H         2.928995        -0.864173         3.361814
 H         2.624880        -2.369560         2.303499
 H         4.848207        -1.072365         1.917263
 H         4.457856         1.099248         0.318841
 H         4.146908        -1.520055        -0.831048
