19
Iteration:  3597charge 0 multiplicity 1
 C         0.189896         0.072782        -0.419825
 C         1.472081        -0.087927         0.429857
 C         1.291714        -0.781278         1.855242
 C         2.579289        -1.445283         2.331688
 C         3.786150        -0.806027         1.506502
 C         3.582862         0.535955         0.655812
 O         2.321371         0.933836         0.467086
 C         3.563420        -0.931169        -0.041328
 O         2.146710        -1.123800        -0.375100
 H        -0.504223         0.734793         0.147769
 H         0.494686         0.553133        -1.372428
 H        -0.190826        -0.967805        -0.455859
 H         0.941942         0.025922         2.551598
 H         0.348915        -1.391402         1.804531
 H         2.862072        -1.170416         3.354973
 H         2.795452        -2.519471         2.322413
 H         4.760910        -0.937189         1.870665
 H         4.332179         1.203096         0.471843
 H         4.140190        -1.230724        -0.897965
