19
Iteration:  2876charge 0 multiplicity 1
 C         0.147002         0.207378        -0.252407
 C         1.454690        -0.257159         0.322759
 C         1.321923        -0.941834         1.677295
 C         2.665154        -1.269289         2.438445
 C         3.682618        -0.796298         1.581932
 C         3.547793         0.435332         0.678461
 O         2.290067         0.892399         0.556188
 C         3.560589        -0.944191        -0.035350
 O         2.243846        -1.048122        -0.577385
 H        -0.198362         0.929506         0.496141
 H         0.404862         0.626308        -1.280421
 H        -0.552242        -0.610099        -0.329483
 H         0.772923        -0.205029         2.292773
 H         0.699426        -1.778089         1.587994
 H         2.764879        -0.635854         3.393812
 H         2.683662        -2.313710         2.667577
 H         4.775718        -0.815356         1.858199
 H         4.199971         1.272598         0.579622
 H         4.405989        -1.246818        -0.782492
