19
Iteration:   877
 C         0.206238         0.116434        -0.364724
 C         1.440599        -0.248546         0.392873
 C         1.315973        -0.961101         1.788920
 C         2.668959        -1.591859         2.179120
 C         3.745369        -0.761679         1.557219
 C         3.507386         0.564553         0.712153
 O         2.116647         0.978668         0.614668
 C         3.605739        -0.696416        -0.010808
 O         2.338399        -1.032199        -0.468405
 H        -0.503533         0.704379         0.238980
 H         0.488041         0.875873        -1.140751
 H        -0.336177        -0.839356        -0.594496
 H         1.167257        -0.154166         2.568059
 H         0.452452        -1.690849         1.782116
 H         2.662306        -1.748578         3.250500
 H         2.577895        -2.556668         1.664776
 H         4.781365        -1.093918         1.771126
 H         4.261049         1.330918         0.772296
 H         4.341404        -1.076730        -0.623583
