19
Iteration:  3801charge 0 multiplicity 1
 C         0.046558         0.169416        -0.290692
 C         1.406493        -0.280154         0.327680
 C         1.245494        -0.779829         1.764015
 C         2.600966        -1.211152         2.370538
 C         3.729390        -0.906606         1.490912
 C         3.779955         0.439210         0.664074
 O         2.333875         0.928833         0.563973
 C         3.557772        -0.926715        -0.063068
 O         2.266957        -1.131428        -0.472962
 H        -0.501388         1.079196         0.084332
 H         0.175201         0.420566        -1.358497
 H        -0.704265        -0.647930        -0.193800
 H         0.754851         0.018236         2.320757
 H         0.535868        -1.638981         1.864778
 H         2.745368        -0.532125         3.248158
 H         2.592221        -2.257117         2.874190
 H         4.668785        -1.324455         1.748990
 H         4.421040         1.271581         0.628741
 H         4.363503        -1.258387        -0.755328
