19
Iteration:  4556charge 0 multiplicity 1
 C         0.188177         0.309297        -0.295490
 C         1.441408        -0.173863         0.364522
 C         1.270261        -1.027392         1.732771
 C         2.597300        -1.087914         2.489566
 C         3.780482        -0.776618         1.501471
 C         3.641556         0.301952         0.576053
 O         2.315526         0.924960         0.467466
 C         3.520340        -1.085298         0.013367
 O         2.175891        -1.059478        -0.481584
 H        -0.222211         1.174423         0.266018
 H         0.485988         0.728577        -1.230320
 H        -0.572700        -0.482177        -0.414762
 H         0.473825        -0.609259         2.432558
 H         1.129637        -2.110385         1.477282
 H         2.730664        -0.342583         3.245978
 H         2.630400        -2.065322         3.026299
 H         4.737108        -1.033392         1.982126
 H         4.353232         1.097717         0.450886
 H         4.173403        -1.783227        -0.520651
