19
Iteration:  1471
 C         0.209264         0.362792        -0.309335
 C         1.375753        -0.339336         0.380007
 C         1.309004        -1.214731         1.625576
 C         2.637288        -1.209137         2.396957
 C         3.803719        -0.696799         1.488935
 C         3.524588         0.490837         0.599568
 O         2.263838         0.904513         0.727164
 C         3.546039        -0.880119        -0.008814
 O         2.254727        -1.069935        -0.499924
 H        -0.336696         0.918295         0.426866
 H         0.679842         0.844778        -1.133040
 H        -0.480527        -0.352242        -0.812114
 H         0.458236        -0.965001         2.327145
 H         1.154628        -2.155663         1.165079
 H         2.566262        -0.662347         3.411138
 H         2.698445        -2.354099         2.637159
 H         4.795341        -1.076464         1.825471
 H         4.190062         1.363132         0.378037
 H         4.166397        -1.131109        -0.846677
