19
Iteration:  4160
 C         0.152575         0.065766        -0.327083
 C         1.445643        -0.169297         0.421724
 C         1.284731        -0.704014         1.880101
 C         2.643105        -1.255877         2.468133
 C         3.666902        -0.926366         1.424886
 C         3.547249         0.347826         0.702591
 O         2.311399         0.973274         0.462191
 C         3.554058        -0.986851        -0.012070
 O         2.267368        -1.058109        -0.592109
 H        -0.166094         1.081649         0.066416
 H         0.498976         0.165022        -1.340527
 H        -0.524093        -0.821878        -0.173690
 H         0.762145         0.191391         2.298613
 H         0.576750        -1.449210         1.984006
 H         2.803064        -0.454196         3.281275
 H         2.615460        -2.334850         2.708516
 H         4.729002        -0.991282         1.731709
 H         4.525843         0.730801         0.567260
 H         4.442686        -1.271460        -0.667519
