19
Iteration:  4141charge 0 multiplicity 1
 C         0.157316         0.107957        -0.329031
 C         1.448542        -0.220014         0.336558
 C         1.291344        -0.684420         1.861590
 C         2.640355        -1.302675         2.503436
 C         3.704607        -0.898518         1.550433
 C         3.626009         0.454763         0.642442
 O         2.273145         0.917555         0.417467
 C         3.610701        -0.955171        -0.037070
 O         2.217622        -1.079617        -0.549189
 H        -0.223267         1.006491         0.171395
 H         0.285818         0.243486        -1.467473
 H        -0.547509        -0.663155        -0.036521
 H         1.086797         0.195172         2.408321
 H         0.394933        -1.433823         2.024353
 H         2.785677        -0.952227         3.500329
 H         2.339671        -2.366030         2.503398
 H         4.702488        -1.304519         1.817271
 H         4.394069         1.261097         0.789780
 H         4.242091        -1.472511        -0.869562
