19
Iteration:  2940
 C         0.242192         0.072670        -0.419434
 C         1.429191        -0.158445         0.436822
 C         1.284337        -0.717644         1.944232
 C         2.632593        -1.496390         2.187146
 C         3.833401        -0.765233         1.554216
 C         3.534387         0.471522         0.667273
 O         2.230313         0.972976         0.508920
 C         3.506196        -0.827769         0.001775
 O         2.237786        -1.164814        -0.434189
 H        -0.329945         0.930452        -0.004277
 H         0.643019         0.252176        -1.531085
 H        -0.561348        -0.661103        -0.378465
 H         0.939447         0.189529         2.523692
 H         0.542471        -1.414919         2.187415
 H         2.850900        -1.820041         3.224211
 H         2.482809        -2.427589         1.507563
 H         4.764253        -1.129400         2.087930
 H         4.281583         1.201234         0.501472
 H         4.404923        -1.048718        -0.691460
