19
Iteration:  4133
 C         0.131325         0.119221        -0.322704
 C         1.442438        -0.246376         0.334358
 C         1.263613        -0.696920         1.793660
 C         2.585395        -1.357276         2.442814
 C         3.801553        -0.830026         1.526798
 C         3.636226         0.427513         0.636104
 O         2.319661         0.952515         0.439544
 C         3.593205        -0.923824        -0.001818
 O         2.169977        -1.127684        -0.461732
 H        -0.103496         1.011372         0.198449
 H         0.187532         0.314315        -1.434781
 H        -0.518117        -0.705001        -0.116428
 H         0.984316         0.287221         2.225306
 H         0.338888        -1.366073         2.055004
 H         2.602156        -0.904274         3.439385
 H         2.607151        -2.490015         2.438898
 H         4.812167        -1.095828         1.845527
 H         4.551719         1.113906         0.590959
 H         4.315697        -1.329050        -0.719952
