19
Iteration:  3939
 C         0.140875         0.162023        -0.400391
 C         1.423412        -0.136095         0.410909
 C         1.209463        -0.913419         1.726475
 C         2.611556        -1.079204         2.379712
 C         3.825861        -0.947696         1.407577
 C         3.694579         0.385609         0.639018
 O         2.371334         0.970200         0.596370
 C         3.480120        -1.022341        -0.008857
 O         2.173597        -1.116737        -0.388000
 H        -0.335046         0.919071         0.194911
 H         0.401837         0.665710        -1.398375
 H        -0.424774        -0.758725        -0.433060
 H         0.453469        -0.322037         2.372515
 H         0.762826        -1.863650         1.616381
 H         2.671739        -0.362487         3.228889
 H         2.755654        -2.022805         2.860407
 H         4.816348        -1.317432         1.661350
 H         4.334099         1.270772         0.550914
 H         4.273138        -1.308784        -0.755462
