19
Iteration:  1337charge 0 multiplicity 1
 C         0.203129         0.212974        -0.439740
 C         1.385910        -0.263460         0.393164
 C         1.260437        -0.919440         1.905635
 C         2.665273        -1.524252         2.185764
 C         3.830182        -0.733161         1.518592
 C         3.527761         0.541873         0.700499
 O         2.167856         0.990334         0.592188
 C         3.562284        -0.813599        -0.012274
 O         2.281071        -1.157686        -0.411378
 H        -0.336200         0.918305         0.199999
 H         0.659383         0.928993        -1.159106
 H        -0.311733        -0.551519        -0.984170
 H         0.921719        -0.123851         2.531183
 H         0.427832        -1.609390         1.837443
 H         3.007340        -1.676182         3.236471
 H         2.661015        -2.674507         1.918702
 H         4.935942        -0.830792         1.722833
 H         4.305598         1.321855         0.678613
 H         4.377109        -1.093202        -0.804228
