19
Iteration:  2461
 C         0.158905         0.034321        -0.402119
 C         1.389621        -0.306278         0.429446
 C         1.268502        -0.702449         1.878400
 C         2.568452        -1.430540         2.208785
 C         3.773709        -0.823865         1.480463
 C         3.546952         0.488642         0.709083
 O         2.281191         0.976185         0.609620
 C         3.621372        -0.898031        -0.070297
 O         2.283023        -1.015627        -0.442277
 H        -0.628172         0.535435         0.151551
 H         0.367824         0.721804        -1.150005
 H        -0.168428        -0.931540        -0.888738
 H         1.132906         0.285678         2.342988
 H         0.430739        -1.292573         2.215875
 H         2.897278        -1.508622         3.344002
 H         2.494264        -2.424989         1.870833
 H         4.816890        -0.906845         1.889790
 H         4.359432         1.170293         0.696647
 H         4.395827        -1.411352        -0.868394
