19
Iteration:  3164
 C         0.241404         0.113791        -0.521037
 C         1.426724        -0.141834         0.476343
 C         1.285937        -0.743845         1.881889
 C         2.644087        -1.470905         2.270877
 C         3.812849        -0.815998         1.452929
 C         3.582669         0.498824         0.579498
 O         2.206831         0.998717         0.528213
 C         3.538755        -0.839502         0.038132
 O         2.198625        -1.208125        -0.250557
 H        -0.486194         0.814939        -0.146153
 H         0.637567         0.726921        -1.436809
 H        -0.135359        -0.828890        -0.900591
 H         1.070074        -0.022961         2.597124
 H         0.438844        -1.473472         1.861797
 H         2.933473        -1.623764         3.381659
 H         2.463365        -2.436750         1.784910
 H         4.847483        -1.017145         1.783020
 H         4.326945         1.249368         0.386664
 H         4.080606        -1.297757        -0.801179
