19
Iteration:   412
 C         0.155513         0.030998        -0.308799
 C         1.427749        -0.199967         0.406808
 C         1.310951        -0.907661         1.696558
 C         2.647570        -1.666346         2.044929
 C         3.826342        -0.793548         1.563284
 C         3.515290         0.560391         0.771704
 O         2.182726         1.061055         0.579228
 C         3.597628        -0.696031         0.052765
 O         2.280981        -1.032660        -0.392395
 H        -0.673619         0.425890         0.372738
 H         0.378649         0.812907        -1.038452
 H        -0.242230        -0.900049        -0.733665
 H         1.124949        -0.184487         2.451163
 H         0.495749        -1.597653         1.595958
 H         2.740246        -1.667909         3.133048
 H         2.641230        -2.679074         1.526428
 H         4.738306        -0.860859         2.015798
 H         4.318348         1.298654         0.722352
 H         4.342813        -1.082207        -0.672608
