19
Iteration:  1958charge 0 multiplicity 1
 C         0.148406         0.254932        -0.224418
 C         1.435219        -0.244649         0.246390
 C         1.306780        -1.083819         1.607334
 C         2.639733        -1.265107         2.399243
 C         3.758417        -0.786312         1.603746
 C         3.528017         0.481265         0.716629
 O         2.210169         0.871465         0.665740
 C         3.613718        -0.861193         0.017922
 O         2.281196        -1.032315        -0.675140
 H        -0.256201         0.821989         0.593698
 H         0.358822         0.870307        -1.045390
 H        -0.590304        -0.507433        -0.407779
 H         0.548605        -0.583700         2.329855
 H         0.879522        -2.114067         1.547767
 H         2.576385        -0.663206         3.254488
 H         2.975855        -2.299265         2.664046
 H         4.786556        -0.916136         1.904273
 H         4.351633         1.251485         0.509162
 H         4.399312        -1.284149        -0.525924
