19
Iteration:  3302charge 0 multiplicity 1
 C         0.204278         0.331029        -0.298389
 C         1.429211        -0.265588         0.363719
 C         1.313825        -1.007362         1.641015
 C         2.675019        -1.056060         2.448516
 C         3.752632        -0.816616         1.505188
 C         3.522450         0.425557         0.576913
 O         2.246173         0.822230         0.655842
 C         3.560262        -0.918122        -0.084023
 O         2.249581        -1.196626        -0.475984
 H        -0.050723         1.267338         0.184514
 H         0.373570         0.541969        -1.384048
 H        -0.614190        -0.427691        -0.360436
 H         0.568037        -0.330208         2.293894
 H         0.741856        -1.933256         1.620688
 H         2.754939        -0.253888         3.193364
 H         2.688184        -2.008021         3.127823
 H         4.717972        -1.231554         1.831128
 H         4.179062         1.193908         0.684611
 H         4.275481        -1.209142        -0.822548
