19
Iteration:  4404
 C         0.169580         0.086461        -0.323071
 C         1.415600        -0.256846         0.379604
 C         1.221089        -0.597391         1.877138
 C         2.574317        -1.304825         2.483994
 C         3.811952        -0.895496         1.458159
 C         3.618921         0.400363         0.605545
 O         2.293274         0.960189         0.463552
 C         3.588347        -1.001341         0.029207
 O         2.248755        -1.064778        -0.571739
 H        -0.556011         0.691032         0.325059
 H         0.407398         0.613421        -1.222804
 H        -0.409105        -0.838854        -0.617094
 H         1.057018         0.255310         2.416662
 H         0.344247        -1.242781         2.285400
 H         2.622473        -1.063128         3.528745
 H         2.511581        -2.455015         2.415116
 H         4.848524        -1.191059         1.731986
 H         4.427749         1.131571         0.560655
 H         4.335370        -1.452803        -0.744144
