19
Iteration:  1090charge 0 multiplicity 1
 C         0.248614         0.167659        -0.469189
 C         1.422655        -0.220661         0.452921
 C         1.314831        -0.957934         1.781905
 C         2.690721        -1.478463         2.218209
 C         3.797769        -0.752289         1.510401
 C         3.499446         0.490697         0.762142
 O         2.162612         0.940117         0.731543
 C         3.542462        -0.751365        -0.099921
 O         2.231636        -1.085991        -0.447161
 H        -0.591178         0.771306        -0.066812
 H         0.826560         0.692662        -1.258645
 H        -0.124533        -0.796236        -0.813187
 H         0.953565        -0.178532         2.452138
 H         0.652430        -1.772971         1.722264
 H         2.836980        -1.306114         3.275133
 H         2.641369        -2.492918         1.933966
 H         4.837148        -0.988869         1.707444
 H         4.228715         1.245084         0.537402
 H         4.283436        -0.865401        -0.821918
