19
Iteration:  2780
 C         0.192667         0.174167        -0.341081
 C         1.404887        -0.218649         0.386921
 C         1.235823        -0.967139         1.743693
 C         2.681067        -1.194138         2.443518
 C         3.790677        -0.860501         1.410699
 C         3.581169         0.485087         0.712315
 O         2.232408         0.919330         0.662223
 C         3.539985        -0.939751        -0.094626
 O         2.256309        -1.073195        -0.527755
 H        -0.328657         0.852132         0.287484
 H         0.541468         0.594563        -1.271071
 H        -0.375535        -0.657897        -0.623229
 H         0.565823        -0.340659         2.388378
 H         0.621219        -1.815383         1.286476
 H         2.619630        -0.465559         3.280751
 H         2.898501        -2.140173         2.810690
 H         4.840262        -1.191649         1.701275
 H         4.347344         1.202211         0.715191
 H         4.390042        -1.381482        -0.779392
