19
Iteration:  2800charge 0 multiplicity 1
 C         0.128684         0.245455        -0.393797
 C         1.413606        -0.324943         0.318930
 C         1.338215        -1.058851         1.748504
 C         2.678997        -1.038446         2.457774
 C         3.782588        -0.892987         1.524060
 C         3.587890         0.368702         0.631521
 O         2.287881         0.851674         0.754760
 C         3.545760        -0.881096        -0.072267
 O         2.158549        -0.982190        -0.596231
 H        -0.576491         0.736683         0.211852
 H         0.607012         0.859026        -1.226384
 H        -0.385275        -0.615489        -0.780910
 H         0.450565        -0.523021         2.239436
 H         0.958695        -2.147572         1.616815
 H         2.736624        -0.191088         3.257440
 H         2.693104        -1.935620         3.016020
 H         4.846760        -1.136983         1.910449
 H         4.346046         1.109333         0.401318
 H         4.524843        -1.140013        -0.674736
