19
Iteration:  3091charge 0 multiplicity 1
 C         0.124637         0.178303        -0.202867
 C         1.546960        -0.206474         0.359643
 C         1.283699        -0.990367         1.645889
 C         2.595336        -1.208637         2.451434
 C         3.696566        -0.767192         1.482758
 C         3.624829         0.435208         0.702539
 O         2.326231         0.929387         0.476204
 C         3.563707        -0.957533        -0.049118
 O         2.208891        -1.055716        -0.489202
 H        -0.209384         1.103273         0.221308
 H         0.028461         0.359196        -1.314569
 H        -0.427305        -0.726470        -0.099847
 H         0.487618        -0.582277         2.335344
 H         0.855760        -2.005426         1.281662
 H         2.478165        -0.653428         3.345796
 H         2.700827        -2.267839         2.793278
 H         4.707806        -0.886287         1.894738
 H         4.336610         1.270930         0.748156
 H         4.312200        -1.443075        -0.603772
