19
Iteration:  2661charge 0 multiplicity 1
 C         0.114088         0.104408        -0.346278
 C         1.428393        -0.179405         0.402496
 C         1.271287        -0.857450         1.715609
 C         2.649447        -1.390121         2.334180
 C         3.807184        -0.855770         1.548464
 C         3.603879         0.516220         0.608409
 O         2.334698         0.993573         0.634227
 C         3.526809        -0.894969         0.023741
 O         2.202072        -1.079738        -0.496245
 H        -0.782195         0.435293         0.193838
 H         0.368165         0.644443        -1.303006
 H        -0.234900        -0.822241        -0.767003
 H         0.851473        -0.063519         2.316025
 H         0.550797        -1.696647         1.673412
 H         2.645110        -1.056592         3.390696
 H         2.717578        -2.546905         2.272366
 H         4.889877        -0.812516         1.829237
 H         4.356680         1.302005         0.457978
 H         4.294869        -1.370920        -0.622830
