19
Iteration:  2013charge 0 multiplicity 1
 C         0.192501         0.013966        -0.457131
 C         1.424512        -0.153085         0.423883
 C         1.276415        -0.835917         1.787083
 C         2.629875        -1.481902         2.234511
 C         3.750745        -0.840215         1.412313
 C         3.524811         0.506530         0.776793
 O         2.255440         1.055106         0.688201
 C         3.611774        -0.808372        -0.076545
 O         2.246084        -1.067873        -0.384124
 H        -0.576517         0.642949        -0.095762
 H         0.621044         0.389087        -1.384028
 H        -0.073463        -0.981400        -0.708072
 H         0.945700         0.020055         2.497618
 H         0.591191        -1.647541         2.025518
 H         2.733331        -1.644560         3.271082
 H         2.662259        -2.506053         1.715194
 H         4.740224        -1.168297         1.794193
 H         4.280905         1.347629         0.800502
 H         4.178510        -1.105157        -0.899057
