19
Iteration:  2464charge 0 multiplicity 1
 C         0.156876         0.026629        -0.432298
 C         1.408475        -0.295269         0.432967
 C         1.275745        -0.692860         1.887012
 C         2.584121        -1.406768         2.237187
 C         3.777052        -0.832378         1.453414
 C         3.567012         0.477342         0.720596
 O         2.258200         0.970025         0.599958
 C         3.597485        -0.867152        -0.060669
 O         2.286476        -1.047565        -0.428390
 H        -0.624360         0.593308         0.078547
 H         0.396675         0.873362        -1.119745
 H        -0.293220        -0.885728        -0.883610
 H         1.108886         0.209649         2.368940
 H         0.516240        -1.335016         2.239633
 H         2.803075        -1.621454         3.229552
 H         2.495304        -2.437525         1.741014
 H         4.854451        -0.931792         1.792103
 H         4.362198         1.191462         0.846903
 H         4.321678        -1.383154        -0.808843
