19
Iteration:  4276
 C         0.172942         0.038653        -0.283811
 C         1.508262        -0.138650         0.416431
 C         1.176722        -0.829710         1.733042
 C         2.514652        -0.990059         2.377897
 C         3.711095        -0.904172         1.436722
 C         3.778849         0.374010         0.579984
 O         2.437033         0.957381         0.615686
 C         3.489535        -1.009655        -0.008739
 O         2.168667        -1.093330        -0.478404
 H        -0.544864         0.753307         0.225865
 H         0.043626         0.329696        -1.276405
 H        -0.358648        -0.961235        -0.259073
 H         0.366480        -0.341238         2.389245
 H         0.912433        -1.885437         1.494822
 H         2.760751        -0.324187         3.168177
 H         2.413746        -2.023375         2.678983
 H         4.612228        -1.496187         1.668352
 H         4.645217         1.024305         0.447483
 H         4.296601        -1.434876        -0.667433
