19
Iteration:  2392
 C         0.210322         0.318800        -0.240871
 C         1.460929        -0.318170         0.363674
 C         1.234157        -1.048076         1.648659
 C         2.595619        -1.216064         2.453981
 C         3.787907        -0.794831         1.480367
 C         3.554377         0.477677         0.625615
 O         2.227238         0.906419         0.661791
 C         3.589590        -0.873094        -0.053360
 O         2.281765        -1.121313        -0.542445
 H        -0.265562         1.170805         0.278805
 H         0.426992         0.830225        -1.259338
 H        -0.517381        -0.432811        -0.512811
 H         0.401354        -0.608906         2.322644
 H         0.874706        -2.143726         1.505413
 H         2.615461        -0.610486         3.508737
 H         2.849316        -2.264739         2.655462
 H         4.789254        -1.109594         1.699877
 H         4.282592         1.283444         0.323570
 H         4.262394        -1.289747        -0.683865
