19
Iteration:  2492charge 0 multiplicity 1
 C         0.233572         0.163236        -0.401429
 C         1.436454        -0.177482         0.459885
 C         1.279012        -0.837307         1.763660
 C         2.622144        -1.526251         2.216790
 C         3.808084        -0.815282         1.470393
 C         3.486540         0.488000         0.683483
 O         2.241280         1.036735         0.507844
 C         3.576726        -0.825398        -0.003223
 O         2.247483        -1.176881        -0.317658
 H        -0.612127         0.729283         0.031906
 H         0.492825         0.782711        -1.225820
 H        -0.284163        -0.805148        -0.607434
 H         1.077969         0.011971         2.546481
 H         0.435594        -1.564798         1.945384
 H         2.743197        -1.269667         3.393532
 H         2.741109        -2.588199         2.157949
 H         4.788316        -0.826084         1.956925
 H         4.312744         1.142862         0.490656
 H         4.230166        -1.060681        -0.920906
