19
Iteration:  1238charge 0 multiplicity 1
 C         0.202825         0.327824        -0.364044
 C         1.388575        -0.264313         0.406309
 C         1.291040        -1.220275         1.627825
 C         2.650759        -1.279995         2.367096
 C         3.776734        -0.735787         1.492934
 C         3.608550         0.503018         0.616123
 O         2.228488         0.894684         0.749766
 C         3.508007        -0.798548        -0.047731
 O         2.249492        -1.079776        -0.475446
 H        -0.299260         0.894010         0.415936
 H         0.609240         0.829711        -1.185104
 H        -0.492599        -0.401681        -0.731771
 H         0.514736        -0.876499         2.209643
 H         1.052893        -2.173295         1.151604
 H         2.460083        -0.786177         3.316533
 H         3.043592        -2.259591         2.793225
 H         4.755321        -0.923770         1.740405
 H         4.338306         1.302729         0.495643
 H         4.305652        -1.083371        -0.688016
