19
Iteration:  2621charge 0 multiplicity 1
 C         0.157865         0.283747        -0.229701
 C         1.424165        -0.277103         0.364074
 C         1.288093        -1.066185         1.657661
 C         2.561173        -1.173034         2.450501
 C         3.836006        -0.859763         1.456839
 C         3.590546         0.425012         0.693910
 O         2.259307         0.900475         0.576359
 C         3.606616        -0.825724        -0.065434
 O         2.234709        -1.121655        -0.533409
 H        -0.379890         0.891631         0.598655
 H         0.460900         1.021289        -1.013753
 H        -0.402567        -0.526048        -0.842795
 H         0.628357        -0.497442         2.378802
 H         0.935166        -2.079508         1.468075
 H         2.584463        -0.296457         3.061880
 H         2.484444        -2.080205         3.109708
 H         4.786025        -0.977820         1.976760
 H         4.223630         1.257838         0.612053
 H         4.260364        -1.320814        -0.891493
