19
Iteration:   120
 C         0.107879         0.129799        -0.338838
 C         1.439584        -0.283077         0.377124
 C         1.235632        -1.047772         1.708020
 C         2.583593        -1.389041         2.334462
 C         3.752310        -0.793619         1.414957
 C         3.598367         0.508641         0.733909
 O         2.225225         0.897355         0.768045
 C         3.647812        -0.743298        -0.147408
 O         2.320915        -0.950175        -0.504154
 H        -0.253454         0.925137         0.238567
 H         0.521121         0.399828        -1.226872
 H        -0.515595        -0.645697        -0.532228
 H         0.815315        -0.274073         2.346852
 H         0.523446        -1.888804         1.641477
 H         2.659921        -0.999331         3.364766
 H         2.691138        -2.441599         2.321916
 H         4.743243        -0.969119         1.693932
 H         4.326601         1.358993         0.741668
 H         4.424876        -1.252017        -0.712367
