19
Iteration:   149charge 0 multiplicity 1
 C         0.142592        -0.007046        -0.343308
 C         1.455228        -0.082628         0.351224
 C         1.434405        -0.898313         1.708857
 C         2.641786        -1.583789         2.297042
 C         3.800146        -0.919279         1.490138
 C         3.478808         0.456068         0.882420
 O         2.210516         1.102705         0.592395
 C         3.537326        -0.732344        -0.018025
 O         2.243756        -0.954490        -0.535871
 H        -0.660556         0.656209         0.046325
 H         0.463147         0.215339        -1.492394
 H        -0.331661        -1.090830        -0.433650
 H         0.993714        -0.290729         2.502189
 H         0.614637        -1.643766         1.635459
 H         2.692749        -1.414674         3.417694
 H         2.605419        -2.682220         2.106832
 H         4.865499        -1.119525         1.790890
 H         4.290488         1.106207         0.793989
 H         4.370585        -0.938730        -0.607469
