19
Iteration:  3625charge 0 multiplicity 1
 C         0.146385         0.133754        -0.348430
 C         1.426290        -0.245423         0.372132
 C         1.329460        -0.666769         1.870296
 C         2.538397        -1.392769         2.233091
 C         3.779208        -0.809939         1.528439
 C         3.494363         0.513202         0.627437
 O         2.233447         0.970605         0.493947
 C         3.637221        -0.957617        -0.017066
 O         2.315235        -1.187934        -0.340013
 H        -0.181660         0.921343         0.300208
 H         0.380456         0.632822        -1.357438
 H        -0.715724        -0.527299        -0.456595
 H         1.095245         0.243410         2.375414
 H         0.446771        -1.408893         1.995804
 H         2.882687        -1.608866         3.263753
 H         2.563629        -2.384217         1.756938
 H         4.830790        -1.169533         1.919763
 H         4.416579         1.268140         0.409719
 H         4.342585        -1.439773        -0.773118
