19
Iteration:   161charge 0 multiplicity 1
 C         0.098862        -0.028729        -0.352784
 C         1.473577        -0.154798         0.410977
 C         1.327627        -0.876463         1.709107
 C         2.635091        -1.638091         2.230558
 C         3.687378        -0.884406         1.478642
 C         3.574407         0.550257         0.817395
 O         2.238321         1.077461         0.590434
 C         3.617407        -0.746108        -0.043068
 O         2.299941        -0.978093        -0.443118
 H        -0.564736         0.644778         0.218597
 H         0.193173         0.491539        -1.384466
 H        -0.360924        -1.060138        -0.410116
 H         1.180416        -0.020581         2.347530
 H         0.437301        -1.512524         1.599542
 H         2.696541        -1.578167         3.368687
 H         2.694709        -2.686353         1.959779
 H         4.690057        -0.901230         1.853465
 H         4.277332         1.362084         1.015557
 H         4.231887        -1.035608        -0.849472
