19
Iteration:  1013charge 0 multiplicity 1
 C         0.114002         0.256851        -0.214015
 C         1.414141        -0.282292         0.358728
 C         1.292011        -1.236517         1.587371
 C         2.656734        -1.268039         2.436979
 C         3.719338        -0.829659         1.500241
 C         3.557795         0.526458         0.711139
 O         2.195903         0.899477         0.649480
 C         3.596302        -0.782768        -0.019873
 O         2.366087        -0.972758        -0.621830
 H        -0.223612         1.066602         0.480256
 H         0.365133         0.903811        -1.064803
 H        -0.621595        -0.505420        -0.421754
 H         0.434128        -0.980948         2.162888
 H         0.943834        -2.152906         1.325706
 H         2.698304        -0.668892         3.380096
 H         2.699572        -2.402579         2.712850
 H         4.706842        -1.033599         1.767959
 H         4.383604         1.319651         0.603414
 H         4.475838        -1.036241        -0.635734
