19
Iteration:   748charge 0 multiplicity 1
 C         0.173618         0.165769        -0.278828
 C         1.471793        -0.278164         0.357496
 C         1.283217        -1.249295         1.546530
 C         2.583364        -1.179292         2.309827
 C         3.821778        -0.837810         1.507778
 C         3.581513         0.534879         0.625388
 O         2.208272         0.878623         0.893472
 C         3.536984        -0.777575        -0.067001
 O         2.285961        -0.870563        -0.566019
 H        -0.402509         0.541708         0.549239
 H         0.450650         0.753800        -1.167624
 H        -0.132584        -0.773041        -0.792129
 H         0.298396        -0.959760         2.070564
 H         1.023273        -2.269279         1.286740
 H         2.332924        -0.467870         3.168723
 H         2.772658        -2.201942         2.866214
 H         4.713642        -1.363447         1.815832
 H         4.317188         1.362346         0.549392
 H         4.349163        -1.338361        -0.512547
