19
Iteration:  4892
 C         0.165299         0.230406        -0.230631
 C         1.471307        -0.216379         0.393336
 C         1.240160        -0.935984         1.632893
 C         2.606874        -1.170418         2.340503
 C         3.744660        -0.816449         1.526716
 C         3.646818         0.400807         0.510290
 O         2.372882         0.965489         0.511823
 C         3.477421        -1.008881         0.089507
 O         2.190678        -1.096338        -0.388003
 H        -0.272852         1.049961         0.277186
 H         0.322468         0.308788        -1.341949
 H        -0.541621        -0.568887        -0.036353
 H         0.511795        -0.264776         2.245351
 H         0.835706        -1.830120         1.321722
 H         2.568463        -0.672500         3.361106
 H         2.839103        -2.225339         2.586360
 H         4.779799        -1.059618         1.900699
 H         4.515046         0.998816         0.198198
 H         4.252794        -1.493537        -0.560719
