19
Iteration:  2908charge 0 multiplicity 1
 C         0.183158         0.049317        -0.454041
 C         1.409329        -0.152724         0.415807
 C         1.206391        -0.807278         1.818679
 C         2.638306        -1.450792         2.219098
 C         3.744334        -0.854946         1.390937
 C         3.593669         0.542861         0.619134
 O         2.299409         0.978700         0.639568
 C         3.574037        -0.839667        -0.040057
 O         2.261904        -1.109320        -0.261578
 H        -0.223414         1.048215        -0.271597
 H         0.350694         0.168225        -1.607132
 H        -0.543847        -0.743341        -0.305740
 H         0.932267         0.007709         2.512811
 H         0.540073        -1.567944         1.814010
 H         2.960853        -1.209381         3.280865
 H         2.466561        -2.537827         2.264049
 H         4.732231        -1.139595         1.866916
 H         4.247349         1.381766         0.594763
 H         4.423099        -1.212388        -0.739804
