19
Iteration:   830charge 0 multiplicity 1
 C         0.153905         0.021953        -0.400386
 C         1.428741        -0.227926         0.392796
 C         1.246082        -0.972838         1.689632
 C         2.638014        -1.450525         2.271820
 C         3.797628        -0.825178         1.407831
 C         3.577014         0.565910         0.754271
 O         2.231977         0.933919         0.819783
 C         3.595732        -0.745503        -0.021391
 O         2.277487        -0.948696        -0.509146
 H        -0.527767         0.816339        -0.058585
 H         0.454949         0.430323        -1.344166
 H        -0.373453        -0.909622        -0.375454
 H         0.649759        -0.361369         2.374631
 H         0.589540        -1.908229         1.327614
 H         2.648993        -1.169546         3.292506
 H         2.704394        -2.481824         2.208865
 H         4.756696        -1.097260         1.831304
 H         4.323451         1.419282         0.519602
 H         4.435010        -0.941098        -0.787752
