19
Iteration:  2606
 C         0.143661         0.278472        -0.295793
 C         1.442680        -0.214615         0.386629
 C         1.258625        -1.132579         1.648619
 C         2.669955        -1.045781         2.403221
 C         3.733696        -0.839605         1.493565
 C         3.633812         0.424757         0.631625
 O         2.239440         0.902920         0.693180
 C         3.539734        -0.959512        -0.014744
 O         2.263679        -1.085261        -0.546536
 H        -0.438402         0.903420         0.407340
 H         0.374608         0.963166        -1.168536
 H        -0.447201        -0.559856        -0.525465
 H         0.391287        -0.830957         2.123604
 H         1.016626        -2.109501         1.206322
 H         2.583837        -0.331766         3.241021
 H         2.974738        -2.011614         2.909438
 H         4.709895        -1.292330         1.620129
 H         4.418985         1.219482         0.458072
 H         4.356093        -1.223973        -0.569515
