19
Iteration:  2218
 C         0.179894         0.046690        -0.320014
 C         1.463684        -0.235197         0.378263
 C         1.254052        -0.766879         1.739138
 C         2.596614        -1.409486         2.291203
 C         3.777190        -0.900149         1.403843
 C         3.562870         0.506126         0.745023
 O         2.245067         1.005876         0.661885
 C         3.572095        -0.827714        -0.050734
 O         2.298535        -1.068237        -0.445132
 H        -0.648228         0.634240         0.122654
 H         0.451659         0.405334        -1.421055
 H        -0.447481        -0.860641        -0.540911
 H         0.898682         0.071842         2.417877
 H         0.428744        -1.524685         1.687959
 H         2.885835        -1.330183         3.400826
 H         2.533085        -2.475512         2.085447
 H         4.762180        -1.111358         1.942804
 H         4.320093         1.197068         0.608123
 H         4.301146        -1.019786        -0.922948
