19
Iteration:  4314
 C         0.231682         0.307024        -0.375565
 C         1.393898        -0.279072         0.342875
 C         1.336142        -0.824082         1.797358
 C         2.662387        -1.143259         2.454931
 C         3.783759        -0.887371         1.490040
 C         3.560231         0.376933         0.599856
 O         2.221144         0.915077         0.465928
 C         3.515665        -1.043420         0.072778
 O         2.209431        -1.132049        -0.459341
 H        -0.007348         1.088868         0.293392
 H         0.643104         0.652669        -1.401633
 H        -0.549911        -0.424832        -0.399610
 H         0.731840        -0.128482         2.470906
 H         0.756990        -1.746629         1.687464
 H         2.783778        -0.656760         3.469738
 H         2.669688        -2.215809         2.803838
 H         4.790521        -1.064483         1.807000
 H         4.299256         1.107844         0.273514
 H         4.240030        -1.284360        -0.618027
