19
Iteration:  4510
 C         0.076425         0.153915        -0.319442
 C         1.457784        -0.214977         0.404390
 C         1.168356        -0.778704         1.744868
 C         2.587587        -1.058736         2.395114
 C         3.790256        -0.942133         1.411601
 C         3.675255         0.345739         0.675823
 O         2.352750         0.857925         0.576486
 C         3.576998        -1.013522        -0.076512
 O         2.233137        -1.055128        -0.481507
 H        -0.324094         1.045796         0.184635
 H         0.251383         0.335347        -1.343101
 H        -0.544761        -0.727319        -0.105715
 H         0.643253         0.081759         2.379023
 H         0.624960        -1.679642         1.637756
 H         2.761340        -0.291683         3.207068
 H         2.796001        -2.010409         2.827782
 H         4.676579        -1.156138         2.018536
 H         4.486059         1.059759         0.786951
 H         4.322452        -1.462469        -0.864529
