19
Iteration:  1891charge 0 multiplicity 1
 C         0.131123         0.113705        -0.380060
 C         1.485657        -0.275773         0.358951
 C         1.294327        -1.045048         1.660650
 C         2.654870        -1.109296         2.429359
 C         3.750253        -0.900844         1.479333
 C         3.571278         0.403329         0.717781
 O         2.299427         0.825775         0.810350
 C         3.536754        -0.808680        -0.057573
 O         2.227476        -0.855229        -0.631644
 H        -0.436154         0.731161         0.323659
 H         0.415266         0.506588        -1.288485
 H        -0.441116        -0.812109        -0.665640
 H         0.309185        -0.720603         2.235786
 H         0.898626        -2.051302         1.381302
 H         2.776082        -0.395348         3.204038
 H         2.731868        -2.182275         2.791222
 H         4.662076        -1.168420         1.926942
 H         4.209782         1.211388         0.490494
 H         4.412320        -1.226119        -0.673420
