19
Iteration:  2519
 C         0.171907         0.213515        -0.308337
 C         1.471710        -0.223266         0.411159
 C         1.210547        -0.921227         1.777694
 C         2.612752        -1.367675         2.318635
 C         3.762628        -0.726147         1.489825
 C         3.602273         0.507685         0.652417
 O         2.287400         0.918564         0.544933
 C         3.601550        -0.863028         0.042186
 O         2.232194        -1.113876        -0.504046
 H        -0.416007         0.855228         0.361149
 H         0.314579         0.544444        -1.419496
 H        -0.536273        -0.602646        -0.265583
 H         0.584564        -0.405389         2.419781
 H         0.786704        -1.879743         1.603050
 H         2.751132        -1.226415         3.354063
 H         2.744269        -2.481592         2.134265
 H         4.711863        -1.115630         1.878086
 H         4.337294         1.321515         0.384047
 H         4.267313        -1.373330        -0.622784
