19
Iteration:  4601charge 0 multiplicity 1
 C         0.236824         0.245923        -0.334389
 C         1.412639        -0.249484         0.435359
 C         1.171640        -0.879830         1.758821
 C         2.645441        -1.025336         2.357827
 C         3.787826        -0.921699         1.452819
 C         3.622403         0.351217         0.528593
 O         2.324698         0.916041         0.657377
 C         3.596966        -1.017684        -0.034434
 O         2.175866        -1.134554        -0.466119
 H        -0.423085         0.927807         0.173135
 H         0.408645         0.814698        -1.272966
 H        -0.360116        -0.608084        -0.630845
 H         0.658310        -0.190285         2.429450
 H         0.604943        -1.861071         1.484797
 H         2.610018        -0.270527         3.084968
 H         2.616354        -1.972509         2.987668
 H         4.796482        -1.090768         1.834579
 H         4.308508         1.194741         0.642158
 H         4.146363        -1.548067        -0.683842
