19
Iteration:  2830
 C         0.212503         0.248382        -0.220420
 C         1.504749        -0.191784         0.372796
 C         1.291162        -1.201343         1.631456
 C         2.557087        -0.992934         2.409769
 C         3.726912        -0.854057         1.455379
 C         3.642201         0.412553         0.622746
 O         2.290579         0.887181         0.670647
 C         3.549986        -0.929009        -0.121856
 O         2.166200        -1.053915        -0.467481
 H        -0.481546         0.517261         0.599238
 H         0.284999         0.999761        -1.099739
 H        -0.066776        -0.708579        -0.744601
 H         0.378837        -0.816611         2.082238
 H         1.169337        -2.135291         1.211870
 H         2.418719        -0.013072         2.917345
 H         2.676989        -1.806770         3.215183
 H         4.745236        -1.043342         1.843973
 H         4.466419         1.144081         0.655870
 H         4.339844        -1.428775        -0.645833
