19
Iteration:  4045charge 0 multiplicity 1
 C         0.090901         0.085146        -0.325425
 C         1.435023        -0.211725         0.335977
 C         1.192433        -0.693296         1.790356
 C         2.617896        -1.167094         2.498117
 C         3.736535        -0.902671         1.484769
 C         3.709197         0.333194         0.630956
 O         2.380285         0.925608         0.586876
 C         3.543388        -1.001336        -0.092670
 O         2.225563        -1.052740        -0.518246
 H        -0.640341         0.438341         0.339319
 H         0.159293         0.646403        -1.300415
 H        -0.343903        -0.871107        -0.517939
 H         0.732288         0.173098         2.239000
 H         0.466347        -1.564878         1.801862
 H         2.825044        -0.477111         3.295628
 H         2.717443        -2.248493         2.760526
 H         4.734013        -1.196851         1.837539
 H         4.442163         1.124958         0.463739
 H         4.370817        -1.353391        -0.800218
