19
Iteration:  4649charge 0 multiplicity 1
 C         0.157770         0.167700        -0.252410
 C         1.513023        -0.130685         0.391340
 C         1.244868        -0.833649         1.783852
 C         2.588598        -1.249167         2.392264
 C         3.725826        -0.886080         1.486181
 C         3.626169         0.381283         0.659276
 O         2.315110         0.998871         0.442637
 C         3.533322        -1.076595         0.004781
 O         2.233331        -1.098126        -0.465835
 H        -0.477102         0.994685         0.142551
 H         0.382383         0.628310        -1.220533
 H        -0.418771        -0.752173        -0.483263
 H         0.779573         0.020518         2.294288
 H         0.590324        -1.704562         1.598902
 H         2.661037        -0.555215         3.201096
 H         2.722899        -2.200879         2.832167
 H         4.742313        -0.959426         1.902538
 H         4.397333         1.118491         0.455017
 H         4.229364        -1.534180        -0.852527
