19
Iteration:   665charge 0 multiplicity 1
 C         0.095939         0.115273        -0.260442
 C         1.496562        -0.192583         0.366556
 C         1.235045        -1.006326         1.671951
 C         2.634584        -1.582687         2.093471
 C         3.746822        -0.651726         1.538495
 C         3.562035         0.628466         0.772103
 O         2.212268         0.914856         0.590578
 C         3.664885        -0.737600         0.042889
 O         2.307333        -1.079119        -0.426154
 H        -0.575433         0.800208         0.284723
 H         0.158694         0.768293        -1.170896
 H        -0.564526        -0.783938        -0.335859
 H         0.844875        -0.347578         2.437458
 H         0.605185        -1.932948         1.449854
 H         2.743149        -1.825974         3.146351
 H         2.751364        -2.532432         1.591972
 H         4.842717        -0.703897         2.018717
 H         4.275816         1.381647         0.918645
 H         4.433660        -1.119248        -0.585955
