19
Iteration:  2588
 C         0.200657         0.196514        -0.325198
 C         1.447372        -0.273285         0.363827
 C         1.311757        -1.122496         1.617298
 C         2.549754        -1.077918         2.466828
 C         3.808183        -0.816388         1.514769
 C         3.628496         0.431192         0.592337
 O         2.345641         0.928319         0.770259
 C         3.508571        -0.961564        -0.099866
 O         2.149651        -0.962535        -0.544842
 H        -0.476420         0.895058         0.274445
 H         0.464744         0.532832        -1.366807
 H        -0.607998        -0.623978        -0.351932
 H         0.441403        -1.013669         2.327742
 H         1.166461        -2.161705         1.249126
 H         2.585585        -0.280057         3.172017
 H         2.628938        -2.026143         3.073481
 H         4.831157        -0.888187         1.891034
 H         4.404890         1.115606         0.363574
 H         4.237163        -1.565288        -0.713457
