19
Iteration:  3337charge 0 multiplicity 1
 C         0.101384         0.096326        -0.302008
 C         1.479371        -0.165874         0.373457
 C         1.239709        -0.937538         1.777781
 C         2.615261        -1.284402         2.437799
 C         3.708438        -0.813966         1.497699
 C         3.659088         0.406244         0.510331
 O         2.352922         1.005967         0.487043
 C         3.554570        -0.923071         0.014192
 O         2.230373        -1.030483        -0.408116
 H        -0.627080         0.656564         0.243413
 H         0.291757         0.495142        -1.369229
 H        -0.343633        -0.883695        -0.327682
 H         0.721941        -0.137368         2.502960
 H         0.606640        -1.734936         1.407575
 H         2.637052        -0.811561         3.421378
 H         2.634986        -2.400795         2.567505
 H         4.730889        -1.227870         1.707609
 H         4.477642         1.216946         0.562238
 H         4.304341        -1.361746        -0.607313
