19
Iteration:  4303charge 0 multiplicity 1
 C         0.151155         0.210917        -0.362169
 C         1.499888        -0.215382         0.400158
 C         1.286612        -0.869004         1.757487
 C         2.626999        -1.157958         2.507432
 C         3.777638        -0.888472         1.514324
 C         3.578984         0.340226         0.585817
 O         2.324134         0.948267         0.489994
 C         3.537276        -1.024132        -0.023205
 O         2.172354        -1.090945        -0.452692
 H        -0.326239         1.072760         0.072120
 H         0.385774         0.559921        -1.448750
 H        -0.602007        -0.553906        -0.483601
 H         0.687781        -0.087991         2.334885
 H         0.672364        -1.765526         1.717995
 H         2.841928        -0.301342         3.219620
 H         2.476266        -2.157591         2.962933
 H         4.816377        -1.020112         1.763846
 H         4.421311         1.025472         0.543513
 H         4.238544        -1.305545        -0.754571
