19
Iteration:   764
 C         0.132336         0.247044        -0.212994
 C         1.439673        -0.298603         0.367126
 C         1.271253        -1.264791         1.528783
 C         2.585077        -1.169239         2.410378
 C         3.734387        -0.788944         1.468841
 C         3.578242         0.490419         0.789602
 O         2.222411         0.845332         0.765994
 C         3.648630        -0.784383        -0.052933
 O         2.315121        -0.976612        -0.666440
 H        -0.486423         0.637062         0.647878
 H         0.314865         1.031913        -0.966409
 H        -0.547209        -0.456968        -0.685617
 H         0.498087        -0.992931         2.221416
 H         1.210299        -2.301954         0.980624
 H         2.529737        -0.397622         3.147978
 H         2.777223        -2.094887         2.830355
 H         4.791346        -0.912920         1.840768
 H         4.291058         1.330160         0.739896
 H         4.403275        -0.977367        -0.851351
