19
Iteration:   372
 C         0.207889        -0.028624        -0.319296
 C         1.453710        -0.257155         0.421533
 C         1.235499        -0.910402         1.749959
 C         2.627873        -1.455120         2.229741
 C         3.759241        -0.975747         1.423737
 C         3.513351         0.502137         0.803437
 O         2.188612         0.960839         0.713079
 C         3.619864        -0.652783        -0.098174
 O         2.326736        -0.903681        -0.524498
 H        -0.607859         0.414620         0.221192
 H         0.383987         0.683349        -1.109986
 H        -0.225694        -0.878717        -0.875348
 H         1.017851        -0.036859         2.411594
 H         0.364343        -1.585952         1.728113
 H         2.727997        -1.124035         3.312325
 H         2.744376        -2.537448         2.207013
 H         4.933976        -1.139711         1.707281
 H         4.137189         1.318172         0.826757
 H         4.326630        -0.747260        -0.889516
