19
Iteration:  4640charge 0 multiplicity 1
 C         0.174397         0.153752        -0.340765
 C         1.431316        -0.098257         0.399804
 C         1.308700        -0.828210         1.736175
 C         2.630034        -1.251423         2.498341
 C         3.718536        -0.930169         1.497326
 C         3.656389         0.382811         0.574209
 O         2.318625         1.031435         0.465170
 C         3.509568        -1.046843         0.028127
 O         2.153632        -1.076149        -0.495382
 H        -0.475415         0.876459         0.249447
 H         0.507796         0.509847        -1.282008
 H        -0.285491        -0.861846        -0.470074
 H         0.586135        -0.291679         2.457702
 H         0.771779        -1.687503         1.577622
 H         2.946628        -0.621584         3.419216
 H         2.623923        -2.265830         2.830531
 H         4.770685        -0.929757         1.826668
 H         4.531298         0.978240         0.766687
 H         4.372255        -1.622017        -0.535473
