19
Iteration:  3426charge 0 multiplicity 1
 C         0.143106         0.145304        -0.339314
 C         1.479969        -0.218893         0.396773
 C         1.303345        -0.800983         1.781225
 C         2.600854        -1.396435         2.310608
 C         3.817709        -0.771838         1.518770
 C         3.597488         0.508415         0.582449
 O         2.290641         0.999250         0.479392
 C         3.582359        -0.956857         0.067850
 O         2.152449        -1.135313        -0.354338
 H        -0.532459         0.983205        -0.050782
 H         0.384937         0.470586        -1.322137
 H        -0.430992        -0.761940        -0.587226
 H         0.837274        -0.060576         2.550687
 H         0.555013        -1.608102         1.574383
 H         2.663128        -1.070742         3.338856
 H         2.821603        -2.442772         2.137070
 H         4.796318        -1.096259         1.851124
 H         4.352958         1.274921         0.342721
 H         4.222163        -1.667949        -0.566965
