19
Iteration:  4809
 C         0.154619         0.226592        -0.386541
 C         1.433611        -0.175757         0.410162
 C         1.261537        -0.891121         1.735893
 C         2.624174        -1.232280         2.375806
 C         3.767947        -0.862492         1.501374
 C         3.704319         0.468456         0.592876
 O         2.387668         0.966202         0.496848
 C         3.479271        -0.941901         0.002975
 O         2.137295        -1.167394        -0.336223
 H        -0.476949         0.744883         0.355177
 H         0.364594         0.966663        -1.205023
 H        -0.174218        -0.767759        -0.717673
 H         0.622332        -0.332031         2.361561
 H         0.639456        -1.848640         1.551635
 H         2.622650        -0.606406         3.282958
 H         2.789605        -2.340893         2.663214
 H         4.656328        -1.389502         1.875459
 H         4.422486         1.231811         0.355138
 H         4.087938        -1.590420        -0.796773
