19
Iteration:  2093charge 0 multiplicity 1
 C         0.128571         0.086673        -0.306978
 C         1.464697        -0.187363         0.397436
 C         1.248775        -1.010203         1.661800
 C         2.613751        -1.283502         2.367620
 C         3.798460        -0.829687         1.530059
 C         3.642721         0.434793         0.695629
 O         2.260576         0.968536         0.667304
 C         3.577270        -0.843396        -0.037047
 O         2.241220        -0.962417        -0.582868
 H        -0.595380         0.672430         0.258395
 H         0.314945         0.672258        -1.188893
 H        -0.435285        -0.829303        -0.464528
 H         0.521712        -0.463209         2.262751
 H         0.903370        -2.085638         1.338698
 H         2.574583        -0.842697         3.389087
 H         2.699539        -2.367780         2.511131
 H         4.762623        -1.108192         1.985978
 H         4.363713         1.247916         0.690358
 H         4.231039        -1.447431        -0.753251
