19
Iteration:  4755
 C         0.138694         0.140433        -0.293922
 C         1.428826        -0.279247         0.341596
 C         1.247140        -0.692702         1.707747
 C         2.562262        -1.219584         2.351797
 C         3.837404        -0.861162         1.471540
 C         3.647182         0.392611         0.656378
 O         2.347454         0.921728         0.573723
 C         3.600856        -0.985138         0.006581
 O         2.169006        -1.088053        -0.434045
 H        -0.218621         0.802691         0.513008
 H         0.377931         0.680391        -1.252985
 H        -0.580303        -0.674000        -0.508814
 H         0.806615         0.143987         2.145838
 H         0.444539        -1.514902         1.979154
 H         2.513772        -0.812875         3.383136
 H         2.435146        -2.435643         2.396993
 H         4.836770        -1.194750         1.779434
 H         4.331971         1.156052         0.318993
 H         4.301839        -1.489334        -0.805886
