19
Iteration:  1530charge 0 multiplicity 1
 C         0.122784        -0.053013        -0.317734
 C         1.432065        -0.195083         0.337752
 C         1.238361        -0.832307         1.763363
 C         2.577158        -1.393431         2.272586
 C         3.758616        -0.834065         1.489735
 C         3.621273         0.509087         0.743461
 O         2.292670         0.949705         0.723991
 C         3.584143        -0.857123        -0.072944
 O         2.311277        -0.907540        -0.602478
 H        -0.675249         0.453549         0.307380
 H        -0.030485         0.574053        -1.259674
 H        -0.149467        -1.104246        -0.343103
 H         0.863807        -0.165984         2.499701
 H         0.477732        -1.652028         1.831094
 H         2.814957        -1.030337         3.356146
 H         2.674062        -2.543646         2.311056
 H         4.767445        -1.188949         1.768386
 H         4.317208         1.305539         0.767585
 H         4.325782        -1.494708        -0.697512
