19
Iteration:  2169
 C         0.196673         0.243802        -0.202699
 C         1.430658        -0.287872         0.361146
 C         1.294547        -1.131377         1.589248
 C         2.560231        -1.262250         2.414385
 C         3.764120        -0.721724         1.524256
 C         3.587089         0.481982         0.606798
 O         2.269549         0.994872         0.641632
 C         3.613098        -0.906441         0.038858
 O         2.231368        -1.067272        -0.601899
 H        -0.208792         0.835414         0.600876
 H         0.406207         0.866276        -0.995177
 H        -0.656670        -0.353068        -0.389493
 H         0.473488        -0.904993         2.261436
 H         1.024937        -2.125066         1.084567
 H         2.403896        -0.684363         3.300813
 H         2.716684        -2.296363         2.769151
 H         4.736243        -1.036729         1.804301
 H         4.416373         1.248691         0.489626
 H         4.374049        -1.436626        -0.466457
