19
Iteration:  1227
 C         0.246795         0.308703        -0.372993
 C         1.406101        -0.221734         0.458498
 C         1.202687        -1.261214         1.585984
 C         2.682944        -1.214748         2.370305
 C         3.869868        -0.777732         1.424203
 C         3.511661         0.477652         0.707503
 O         2.194206         0.890862         0.727220
 C         3.599676        -0.788917        -0.107143
 O         2.234921        -1.096778        -0.398217
 H        -0.260315         1.108556         0.198875
 H         0.657439         0.947642        -1.080615
 H        -0.522301        -0.313606        -0.752144
 H         0.489838        -1.084954         2.312683
 H         0.936931        -2.217393         1.116253
 H         2.739832        -0.403835         3.059438
 H         2.764290        -2.291285         2.706793
 H         4.771723        -1.050752         1.789196
 H         4.102757         1.365733         0.538692
 H         4.272148        -1.089393        -0.855903
