19
Iteration:  2297
 C         0.064930         0.164255        -0.216230
 C         1.456592        -0.251257         0.296817
 C         1.226484        -0.927183         1.772170
 C         2.569318        -1.337220         2.337873
 C         3.748290        -0.805802         1.526304
 C         3.606486         0.430692         0.676475
 O         2.268998         0.951949         0.531227
 C         3.661349        -0.848152        -0.024817
 O         2.350451        -1.048716        -0.521193
 H        -0.436127         0.813109         0.515225
 H         0.010807         0.856948        -1.086576
 H        -0.561859        -0.634378        -0.586611
 H         0.689485        -0.200167         2.367101
 H         0.634730        -1.791772         1.773236
 H         2.663004        -1.120007         3.341360
 H         2.577844        -2.426130         2.196977
 H         4.710595        -1.107141         1.852215
 H         4.407562         1.258759         0.663687
 H         4.455020        -1.259038        -0.541698
