19
Iteration:   257
 C         0.133365         0.046565        -0.267665
 C         1.462995        -0.246789         0.342892
 C         1.272122        -1.113411         1.611987
 C         2.587059        -1.264395         2.359097
 C         3.731959        -0.837755         1.431850
 C         3.627913         0.498404         0.757670
 O         2.264282         0.949440         0.880995
 C         3.552487        -0.807769        -0.116412
 O         2.286652        -0.888376        -0.620771
 H        -0.458122         0.643645         0.441945
 H         0.273963         0.529175        -1.324453
 H        -0.295171        -0.965325        -0.589524
 H         0.711271        -0.424425         2.252557
 H         0.886795        -2.092512         1.309812
 H         2.655786        -0.564982         3.145952
 H         2.776564        -2.343210         2.611462
 H         4.641465        -1.202816         1.881867
 H         4.393079         1.249762         0.630863
 H         4.242435        -1.151286        -0.867756
