19
Iteration:  3360charge 0 multiplicity 1
 C         0.177488         0.026238        -0.307796
 C         1.460971        -0.165445         0.354981
 C         1.283464        -0.726901         1.835749
 C         2.642417        -1.329499         2.316963
 C         3.772662        -0.824756         1.533164
 C         3.571933         0.445843         0.706669
 O         2.332400         1.026826         0.475372
 C         3.552917        -0.987057        -0.015860
 O         2.169100        -1.108853        -0.482042
 H        -0.618706         0.380718         0.379500
 H         0.264270         0.649332        -1.223550
 H        -0.180046        -0.969058        -0.536817
 H         0.923915         0.174790         2.505025
 H         0.502555        -1.497412         1.642839
 H         2.817935        -1.116019         3.377067
 H         2.399648        -2.376448         2.221979
 H         4.727318        -1.065164         2.045020
 H         4.402309         1.251944         0.473809
 H         4.254024        -1.432459        -0.783525
