19
Iteration:  2672
 C         0.131163         0.029905        -0.431638
 C         1.436166        -0.202948         0.345260
 C         1.247566        -0.803601         1.760731
 C         2.673302        -1.414253         2.323166
 C         3.815040        -0.774733         1.489983
 C         3.598350         0.398151         0.654860
 O         2.306467         1.035893         0.635667
 C         3.549529        -0.883037         0.007336
 O         2.181481        -1.025599        -0.402038
 H        -0.542029         0.624533         0.232640
 H         0.243229         0.707998        -1.321089
 H        -0.188125        -0.981374        -0.611136
 H         0.915001        -0.074715         2.470178
 H         0.451393        -1.576986         1.665086
 H         2.788470        -1.355901         3.421137
 H         2.661690        -2.549954         2.097777
 H         4.822066        -1.040548         1.925197
 H         4.452463         1.042669         0.514099
 H         4.232115        -1.201161        -0.839827
