19
Iteration:  2383
 C         0.242263         0.303860        -0.292203
 C         1.469595        -0.317155         0.322109
 C         1.237493        -1.077768         1.679697
 C         2.610619        -1.126001         2.421896
 C         3.770057        -0.763820         1.435728
 C         3.571466         0.498983         0.658267
 O         2.239262         0.844779         0.771916
 C         3.584393        -0.896725        -0.051377
 O         2.177194        -1.137591        -0.572231
 H         0.013470         1.118751         0.411498
 H         0.694418         0.638728        -1.245832
 H        -0.596114        -0.340956        -0.523792
 H         0.338366        -0.611331         2.186951
 H         1.024325        -2.100733         1.290345
 H         2.735373        -0.499755         3.431017
 H         2.820680        -2.124114         2.656608
 H         4.783396        -0.916853         1.693634
 H         4.376266         1.320678         0.506376
 H         4.366604        -1.318370        -0.604929
