19
Iteration:  2042
 C         0.167173         0.187637        -0.313731
 C         1.430196        -0.251321         0.369566
 C         1.266430        -0.849481         1.806001
 C         2.616516        -1.553667         2.164742
 C         3.748417        -0.730487         1.547535
 C         3.478153         0.504665         0.728545
 O         2.203241         0.920604         0.505308
 C         3.652775        -0.819022         0.044942
 O         2.354882        -1.092113        -0.430525
 H        -0.483332         0.851663         0.363755
 H         0.479669         0.915787        -1.061219
 H        -0.404194        -0.745556        -0.756190
 H         1.337320         0.052638         2.431896
 H         0.479227        -1.494758         2.086246
 H         2.633168        -1.737840         3.302718
 H         2.661373        -2.554255         1.678848
 H         4.643608        -0.980773         2.018362
 H         4.160302         1.358171         0.431346
 H         4.305007        -0.839114        -0.778502
