19
Iteration:  2370
 C         0.291321         0.285675        -0.383140
 C         1.392218        -0.317828         0.417935
 C         1.291179        -1.136969         1.624646
 C         2.649909        -1.069491         2.341655
 C         3.780921        -0.786445         1.467546
 C         3.595066         0.432103         0.653153
 O         2.245510         0.841379         0.824025
 C         3.502388        -0.894743        -0.083116
 O         2.205653        -1.081808        -0.541322
 H        -0.066612         1.203148         0.147764
 H         0.495399         0.764644        -1.415210
 H        -0.573323        -0.367775        -0.430620
 H         0.553262        -0.705225         2.419546
 H         0.885090        -2.226590         1.508016
 H         2.543943        -0.102751         3.102037
 H         2.812018        -1.948809         2.987178
 H         4.723964        -1.080038         1.901193
 H         4.258278         1.331232         0.660288
 H         4.169872        -1.233590        -0.782177
