19
Iteration:  4909
 C         0.112441         0.216647        -0.281522
 C         1.458925        -0.242333         0.342887
 C         1.185974        -0.937884         1.821538
 C         2.514186        -1.164584         2.442649
 C         3.775863        -0.729059         1.493968
 C         3.710356         0.425717         0.592057
 O         2.411081         0.993625         0.535997
 C         3.605674        -0.986858        -0.061187
 O         2.164300        -1.208289        -0.516272
 H        -0.060449         1.154889         0.351259
 H         0.242043         0.590302        -1.267145
 H        -0.703749        -0.509719        -0.045337
 H         0.553897        -0.388542         2.437667
 H         0.603855        -1.944048         1.554718
 H         2.611822        -0.740734         3.415228
 H         2.718967        -2.274714         2.590423
 H         4.745561        -1.074473         1.772742
 H         4.559914         1.130067         0.420147
 H         4.221554        -1.544077        -0.671684
