19
Iteration:  2986
 C         0.101428         0.134420        -0.197472
 C         1.445840        -0.163566         0.308095
 C         1.276724        -0.806338         1.687514
 C         2.600869        -1.310121         2.331180
 C         3.770749        -0.831108         1.525483
 C         3.605775         0.446038         0.739448
 O         2.304826         0.962217         0.464824
 C         3.577858        -0.910544         0.026095
 O         2.285138        -1.134778        -0.483254
 H        -0.682846         0.367189         0.565022
 H         0.029292         0.759390        -1.058517
 H        -0.377369        -0.806505        -0.570398
 H         0.655698        -0.294179         2.451271
 H         0.800136        -1.703460         1.561356
 H         2.698300        -1.031555         3.457187
 H         2.467669        -2.375450         2.248865
 H         4.755964        -1.125547         1.857644
 H         4.306354         1.253239         0.367914
 H         4.420163        -1.040016        -0.550266
