19
Iteration:   928charge 0 multiplicity 1
 C         0.149612         0.076560        -0.261731
 C         1.485579        -0.204595         0.368724
 C         1.272199        -1.021290         1.689496
 C         2.634979        -1.456238         2.299179
 C         3.778534        -0.910575         1.426721
 C         3.512689         0.573898         0.843914
 O         2.160445         1.015563         0.602416
 C         3.649668        -0.767659        -0.005874
 O         2.321860        -0.995491        -0.553877
 H        -0.574285         0.433989         0.481354
 H         0.312649         0.853074        -1.008920
 H        -0.306244        -0.783250        -0.719502
 H         0.843500        -0.342576         2.364865
 H         0.651300        -1.913141         1.345755
 H         2.782857        -0.963078         3.276423
 H         2.510272        -2.541960         2.419589
 H         4.732256        -1.049689         1.843405
 H         4.202068         1.475192         0.767276
 H         4.388445        -1.021591        -0.789261
