19
Iteration:   125charge 0 multiplicity 1
 C         0.149043         0.081789        -0.358916
 C         1.436810        -0.246846         0.392598
 C         1.232678        -1.010383         1.730363
 C         2.630396        -1.420109         2.342512
 C         3.777281        -0.830840         1.399253
 C         3.584902         0.509154         0.762497
 O         2.211374         0.919526         0.720841
 C         3.618869        -0.779887        -0.089567
 O         2.308260        -0.898554        -0.532412
 H        -0.397532         0.933055         0.198389
 H         0.400478         0.454357        -1.454891
 H        -0.684119        -0.747018        -0.502693
 H         0.713911        -0.274750         2.403162
 H         0.495483        -1.821186         1.703803
 H         2.775072        -1.088485         3.373575
 H         2.777183        -2.553114         2.284490
 H         4.792904        -1.051841         1.873560
 H         4.309251         1.308457         0.813432
 H         4.402559        -1.179034        -0.767351
