19
Iteration:  1078charge 0 multiplicity 1
 C         0.252974         0.081939        -0.416441
 C         1.411814        -0.187773         0.456233
 C         1.199295        -0.987762         1.730462
 C         2.673525        -1.465184         2.235039
 C         3.851215        -0.906768         1.358023
 C         3.546643         0.521972         0.748166
 O         2.182086         1.006675         0.691875
 C         3.587105        -0.725915        -0.067330
 O         2.252552        -1.036983        -0.380522
 H        -0.529431         0.750128         0.061036
 H         0.575788         0.584322        -1.350216
 H        -0.217432        -0.817710        -0.796092
 H         0.809818        -0.283002         2.513303
 H         0.441946        -1.734875         1.622623
 H         2.756274        -1.182434         3.264141
 H         2.846341        -2.474180         2.312049
 H         4.707702        -0.763483         1.919124
 H         4.247588         1.360898         0.918658
 H         4.192425        -0.974475        -0.886591
