19
Iteration:    37
 C         0.133461         0.020551        -0.198520
 C         1.493037        -0.215121         0.382433
 C         1.323399        -1.071975         1.555385
 C         2.592224        -1.179394         2.317864
 C         3.728671        -0.958000         1.447782
 C         3.608054         0.448228         0.703946
 O         2.251853         0.924878         0.800122
 C         3.582663        -0.843754        -0.058757
 O         2.262444        -0.836061        -0.623776
 H        -0.634730         0.453264         0.566926
 H         0.229553         0.826941        -0.952963
 H        -0.347243        -0.991455        -0.530460
 H         0.570546        -0.590866         2.213155
 H         0.865514        -1.996289         1.228886
 H         2.599040        -0.401533         3.074666
 H         2.632894        -2.107890         2.973013
 H         4.717648        -1.112575         1.802937
 H         4.336503         1.281593         0.848765
 H         4.324459        -1.238145        -0.766770
