19
Iteration:  2490charge 0 multiplicity 1
 C         0.238448         0.155519        -0.406789
 C         1.430245        -0.174154         0.444605
 C         1.288894        -0.812401         1.784126
 C         2.618315        -1.525380         2.214482
 C         3.814779        -0.823478         1.484750
 C         3.484620         0.505758         0.699227
 O         2.238508         1.019131         0.511794
 C         3.584745        -0.818031        -0.019148
 O         2.234124        -1.190144        -0.325518
 H        -0.625039         0.739256         0.007140
 H         0.442455         0.859655        -1.283898
 H        -0.198008        -0.827664        -0.587147
 H         1.070994         0.017652         2.579001
 H         0.423046        -1.548943         1.950770
 H         2.810616        -1.287366         3.310984
 H         2.739688        -2.647182         2.150666
 H         4.767365        -0.926842         1.947485
 H         4.327605         1.193186         0.440199
 H         4.214280        -0.986128        -0.823813
