19
Iteration:  1787
 C         0.109972         0.062501        -0.334925
 C         1.417708        -0.192684         0.430916
 C         1.293025        -0.748919         1.790092
 C         2.572427        -1.542945         2.221964
 C         3.788642        -0.897568         1.439616
 C         3.517668         0.479813         0.846342
 O         2.254525         0.970267         0.537274
 C         3.635362        -0.699202        -0.056596
 O         2.294282        -1.072206        -0.470915
 H        -0.705582         0.673111         0.098719
 H         0.563593         0.482432        -1.288492
 H        -0.101852        -1.007785        -0.420541
 H         1.045470        -0.087927         2.529719
 H         0.581891        -1.557318         1.773134
 H         2.865541        -1.405816         3.288350
 H         2.428197        -2.575277         1.996290
 H         4.829518        -0.874553         1.776488
 H         4.223071         1.330212         0.841982
 H         4.526370        -0.929765        -0.623210
