19
Iteration:  3036charge 0 multiplicity 1
 C         0.248015         0.249962        -0.403891
 C         1.435388        -0.266307         0.446418
 C         1.283556        -1.027083         1.702035
 C         2.683182        -0.922058         2.442398
 C         3.792515        -0.927191         1.415301
 C         3.654418         0.399955         0.655618
 O         2.197123         0.839003         0.746655
 C         3.474945        -0.861949        -0.069230
 O         2.178306        -1.130509        -0.520681
 H        -0.583884         0.719411         0.083281
 H         0.754269         0.872377        -1.222581
 H        -0.308595        -0.425921        -1.024450
 H         0.460583        -0.838596         2.429985
 H         1.039775        -2.124991         1.317621
 H         2.720139        -0.136160         3.131317
 H         2.735333        -1.934798         2.918756
 H         4.812055        -1.268857         1.702279
 H         4.284194         1.257761         0.628863
 H         4.267784        -1.260368        -0.753639
