19
Iteration:  3239
 C         0.059524         0.122171        -0.248454
 C         1.404514        -0.216880         0.355766
 C         1.254545        -0.945227         1.674821
 C         2.630382        -1.095225         2.499332
 C         3.734843        -0.899721         1.504077
 C         3.631267         0.353909         0.656997
 O         2.368386         1.025451         0.553132
 C         3.531450        -0.977792        -0.010346
 O         2.284459        -1.064468        -0.566628
 H        -0.495665         0.732840         0.414062
 H         0.232138         0.731854        -1.195255
 H        -0.503597        -0.774555        -0.450996
 H         0.394597        -0.397504         2.222612
 H         1.104919        -1.971965         1.396101
 H         2.710818        -0.302958         3.263493
 H         2.765370        -2.084207         2.848097
 H         4.728472        -1.336155         1.768007
 H         4.410828         1.088285         0.516094
 H         4.308848        -1.210045        -0.671660
