19
Iteration:  2008
 C         0.225361         0.002290        -0.456838
 C         1.449646        -0.123869         0.467136
 C         1.268171        -0.851410         1.794203
 C         2.602434        -1.468959         2.201915
 C         3.755961        -0.864645         1.410470
 C         3.524308         0.515579         0.796586
 O         2.273133         1.045586         0.679497
 C         3.554933        -0.825318        -0.091098
 O         2.259701        -1.045278        -0.377194
 H        -0.681751         0.576522        -0.030314
 H         0.628057         0.267429        -1.459538
 H        -0.157101        -1.095952        -0.676006
 H         0.793719        -0.095751         2.412398
 H         0.447437        -1.612035         1.858238
 H         2.871084        -1.418695         3.349376
 H         2.738793        -2.514695         1.884828
 H         4.749349        -1.125679         1.725282
 H         4.303560         1.245111         0.736488
 H         4.268361        -0.880477        -1.011173
