19
Iteration:  3715charge 0 multiplicity 1
 C         0.240891         0.247458        -0.291042
 C         1.468303        -0.306466         0.323078
 C         1.207429        -0.962222         1.681876
 C         2.668826        -0.969010         2.457522
 C         3.737499        -0.893592         1.431003
 C         3.588381         0.403833         0.580806
 O         2.316779         0.899943         0.753254
 C         3.500494        -0.917402        -0.090347
 O         2.208547        -1.166326        -0.526105
 H        -0.300947         0.837346         0.478073
 H         0.566974         0.944302        -1.107419
 H        -0.242532        -0.701437        -0.635383
 H         0.451995        -0.436255         2.195201
 H         0.750097        -2.033294         1.582231
 H         2.860481        -0.172899         3.198170
 H         2.593151        -1.897262         3.033473
 H         4.656705        -1.293989         1.732913
 H         4.191202         1.239659         0.509503
 H         4.184058        -1.515955        -0.652953
