19
Iteration:  3854charge 0 multiplicity 1
 C         0.256594         0.225616        -0.427951
 C         1.404921        -0.140491         0.428713
 C         1.227805        -0.781970         1.897363
 C         2.651479        -1.446765         2.277530
 C         3.771447        -0.796363         1.497829
 C         3.632139         0.444093         0.582509
 O         2.307671         1.020446         0.425657
 C         3.533270        -0.895825         0.012994
 O         2.169768        -1.254573        -0.277087
 H        -0.474696         0.891182         0.024230
 H         0.415207         0.695082        -1.414992
 H        -0.408034        -0.621477        -0.590847
 H         0.881039         0.021399         2.709688
 H         0.447763        -1.552810         2.021086
 H         2.830650        -1.512363         3.355234
 H         2.483829        -2.511605         1.931424
 H         4.804150        -0.906074         1.724076
 H         4.229212         1.210256         0.144748
 H         4.477726        -1.323230        -0.421867
