19
Iteration:  2395charge 0 multiplicity 1
 C         0.197892         0.319473        -0.258479
 C         1.438321        -0.296313         0.377860
 C         1.241036        -1.065437         1.660708
 C         2.610143        -1.243186         2.443824
 C         3.785902        -0.796582         1.492260
 C         3.567015         0.453242         0.614971
 O         2.227620         0.923587         0.623934
 C         3.571195        -0.863221        -0.043128
 O         2.310432        -1.107618        -0.525992
 H        -0.321736         1.087853         0.328680
 H         0.408939         0.834127        -1.170142
 H        -0.544135        -0.478711        -0.419157
 H         0.502510        -0.568315         2.300328
 H         0.817255        -2.046826         1.502492
 H         2.585641        -0.668175         3.422551
 H         2.731355        -2.262741         2.722231
 H         4.756614        -1.142643         1.805384
 H         4.257400         1.306179         0.335186
 H         4.319125        -1.270184        -0.767878
