19
Iteration:  3332
 C         0.147875         0.122857        -0.302817
 C         1.445484        -0.188369         0.357218
 C         1.203977        -0.950372         1.793178
 C         2.649621        -1.257114         2.419024
 C         3.743043        -0.832412         1.508718
 C         3.633269         0.469890         0.543618
 O         2.354916         0.999753         0.495555
 C         3.575994        -0.944091         0.013815
 O         2.223267        -1.049957        -0.427542
 H        -0.506044         0.840190         0.271225
 H         0.111544         0.473721        -1.313578
 H        -0.410046        -0.856279        -0.367777
 H         0.652519        -0.332670         2.408291
 H         0.632180        -1.843486         1.454350
 H         2.778880        -0.654783         3.343937
 H         2.511739        -2.331905         2.598240
 H         4.623932        -1.332712         1.891269
 H         4.378877         1.187376         0.438857
 H         4.248263        -1.439466        -0.723188
