19
Iteration:    42charge 0 multiplicity 1
 C         0.150593         0.056339        -0.207596
 C         1.496727        -0.250108         0.392233
 C         1.304897        -1.093282         1.568976
 C         2.600999        -1.189166         2.357058
 C         3.735263        -0.914950         1.443712
 C         3.568580         0.438746         0.720705
 O         2.250132         0.940697         0.784281
 C         3.549002        -0.854770        -0.089058
 O         2.270684        -0.816794        -0.632515
 H        -0.497601         0.383742         0.541102
 H         0.294101         0.840110        -0.966998
 H        -0.119928        -0.943037        -0.438858
 H         0.481691        -0.672347         2.144141
 H         0.931869        -2.084659         1.186065
 H         2.628449        -0.397547         3.170276
 H         2.716124        -2.062270         2.960498
 H         4.771014        -1.250294         1.822124
 H         4.338622         1.175967         0.708560
 H         4.307088        -1.331492        -0.706333
