19
Iteration:   909charge 0 multiplicity 1
 C         0.056797         0.092213        -0.206897
 C         1.423773        -0.159029         0.362842
 C         1.239209        -0.986796         1.639503
 C         2.607019        -1.525666         2.189380
 C         3.766831        -0.734618         1.528806
 C         3.579360         0.493129         0.740402
 O         2.253409         1.007566         0.587825
 C         3.667598        -0.683746        -0.030765
 O         2.370798        -1.082708        -0.418974
 H        -0.617521         0.311378         0.612906
 H        -0.066041         0.710227        -1.111010
 H        -0.357551        -0.829137        -0.664411
 H         0.701999        -0.327915         2.395593
 H         0.628954        -1.862443         1.218904
 H         2.477048        -1.535742         3.234745
 H         2.746331        -2.535174         1.894927
 H         4.714082        -0.988069         1.999573
 H         4.369744         1.204142         0.842279
 H         4.393407        -0.936296        -0.717900
