19
Iteration:  3454
 C         0.158215         0.110284        -0.261995
 C         1.508125        -0.233817         0.370296
 C         1.243916        -0.823677         1.794990
 C         2.579692        -1.149800         2.424272
 C         3.750578        -0.894640         1.433551
 C         3.572819         0.396955         0.712260
 O         2.295285         0.921656         0.547936
 C         3.583497        -0.903264        -0.102891
 O         2.269278        -1.102410        -0.503588
 H        -0.343562         1.029496         0.037017
 H         0.193935         0.328901        -1.408987
 H        -0.712296        -0.560089        -0.190678
 H         0.638668        -0.122826         2.319816
 H         0.655745        -1.712108         1.587628
 H         2.703873        -0.567633         3.380710
 H         2.723827        -2.251823         2.708713
 H         4.716133        -1.214356         1.891200
 H         4.432574         1.125342         0.483759
 H         4.258002        -1.245633        -0.881478
