19
Iteration:  1139charge 0 multiplicity 1
 C         0.149680         0.106104        -0.266808
 C         1.482046        -0.148085         0.385946
 C         1.239835        -0.953264         1.713064
 C         2.634541        -1.448215         2.239050
 C         3.755462        -0.880282         1.518972
 C         3.543085         0.520950         0.751427
 O         2.226051         0.988527         0.536641
 C         3.619315        -0.698401        -0.046023
 O         2.300623        -1.125804        -0.461122
 H        -0.398350         0.563474         0.581348
 H         0.294391         0.770201        -1.084648
 H        -0.435690        -0.794796        -0.389819
 H         0.724688        -0.393303         2.440427
 H         0.760896        -1.839677         1.224020
 H         2.671956        -1.141901         3.321623
 H         2.540003        -2.610782         2.025801
 H         4.737568        -0.877091         1.956014
 H         4.233498         1.344389         1.042550
 H         4.416139        -0.862842        -0.792418
