19
Iteration:  2793charge 0 multiplicity 1
 C         0.165406         0.227997        -0.432342
 C         1.456667        -0.267861         0.359554
 C         1.302720        -1.036004         1.702699
 C         2.659826        -1.096627         2.496041
 C         3.815561        -0.856067         1.489234
 C         3.610829         0.355349         0.665644
 O         2.252306         0.829639         0.722043
 C         3.529063        -0.878564        -0.075487
 O         2.183379        -0.994653        -0.573653
 H        -0.526783         0.810450         0.227295
 H         0.371191         0.881567        -1.234763
 H        -0.447541        -0.662104        -0.639201
 H         0.654504        -0.423522         2.315903
 H         0.899478        -2.062723         1.840495
 H         2.806451        -0.351306         3.243895
 H         2.623895        -2.046806         3.062609
 H         4.860503        -0.939210         1.744266
 H         4.187008         1.258546         0.573994
 H         4.177161        -1.264163        -0.890471
