19
Iteration:  2565charge 0 multiplicity 1
 C         0.166788         0.162176        -0.267395
 C         1.448756        -0.184330         0.379202
 C         1.241988        -1.105073         1.668270
 C         2.622831        -1.056894         2.468601
 C         3.745395        -0.940930         1.430575
 C         3.628534         0.403707         0.725266
 O         2.289597         0.909723         0.634068
 C         3.498570        -0.862019        -0.077144
 O         2.271001        -0.994767        -0.590224
 H        -0.419792         1.021321         0.177137
 H         0.432948         0.317686        -1.398470
 H        -0.643794        -0.587076        -0.149191
 H         0.488356        -0.790986         2.386256
 H         0.965373        -2.141084         1.461359
 H         2.813887        -0.259688         3.106064
 H         2.791430        -1.999010         3.101800
 H         4.726980        -1.303577         1.728215
 H         4.389274         1.186146         0.698067
 H         4.309223        -1.136028        -0.661866
