19
Iteration:  1987
 C         0.173771         0.038249        -0.355637
 C         1.429146        -0.163805         0.399869
 C         1.204965        -0.938339         1.705669
 C         2.603591        -1.386227         2.298778
 C         3.807147        -0.937494         1.441952
 C         3.599048         0.481201         0.719157
 O         2.245230         0.999155         0.664527
 C         3.665880        -0.722904        -0.072576
 O         2.225761        -0.987242        -0.458997
 H        -0.495848         0.777210         0.208569
 H         0.521484         0.371387        -1.351531
 H        -0.272890        -1.018589        -0.575619
 H         0.653152        -0.412670         2.529051
 H         0.654191        -1.838135         1.689227
 H         2.657687        -0.920245         3.351594
 H         2.664271        -2.494441         2.478008
 H         4.759087        -1.153718         1.875250
 H         4.310335         1.279063         0.786747
 H         4.267505        -1.273582        -0.842428
