19
Iteration:  2792charge 0 multiplicity 1
 C         0.167293         0.222782        -0.429944
 C         1.454982        -0.259018         0.366428
 C         1.298325        -1.030640         1.699047
 C         2.657350        -1.107578         2.500241
 C         3.816772        -0.852739         1.481879
 C         3.611804         0.362757         0.671609
 O         2.248126         0.829301         0.717433
 C         3.524823        -0.882122        -0.075710
 O         2.190801        -0.998881        -0.572044
 H        -0.484857         0.810808         0.220940
 H         0.343798         0.870653        -1.246233
 H        -0.427902        -0.639591        -0.642697
 H         0.667039        -0.395939         2.338443
 H         0.877166        -2.076974         1.825475
 H         2.802560        -0.342339         3.259416
 H         2.643549        -2.033144         3.038231
 H         4.892182        -0.939200         1.736497
 H         4.179663         1.251227         0.596833
 H         4.165151        -1.294485        -0.933034
