19
Iteration:  1840charge 0 multiplicity 1
 C         0.123942         0.181855        -0.325801
 C         1.474909        -0.176182         0.384023
 C         1.248806        -0.930601         1.737551
 C         2.631930        -1.495426         2.178601
 C         3.822829        -0.741639         1.536672
 C         3.578296         0.510244         0.735036
 O         2.193182         0.984520         0.534078
 C         3.583153        -0.824777         0.004911
 O         2.289539        -1.121608        -0.379430
 H        -0.521139         0.676244         0.412702
 H         0.353364         0.730047        -1.278389
 H        -0.333324        -0.789445        -0.570047
 H         0.784847        -0.330204         2.491933
 H         0.524489        -1.797611         1.613052
 H         2.777036        -1.524957         3.293626
 H         2.682621        -2.498053         1.727671
 H         4.824499        -0.954933         1.897946
 H         4.260156         1.391667         0.730150
 H         4.414767        -1.041994        -0.717910
