19
Iteration:  2579
 C         0.159009         0.167580        -0.313115
 C         1.437952        -0.247612         0.450405
 C         1.338298        -1.141274         1.658671
 C         2.594782        -1.087626         2.451437
 C         3.774933        -0.841598         1.559147
 C         3.681841         0.378767         0.633394
 O         2.302089         0.941136         0.711326
 C         3.545211        -0.900959        -0.107530
 O         2.136752        -0.969697        -0.591142
 H        -0.205971         1.139970         0.063317
 H         0.419893         0.447892        -1.303203
 H        -0.418733        -0.813073        -0.382943
 H         0.378383        -0.637091         2.161654
 H         1.012137        -2.074960         1.134815
 H         2.260972        -0.217923         3.103831
 H         2.742207        -1.900646         3.129469
 H         4.775231        -1.270087         1.773142
 H         4.401964         1.125658         0.436611
 H         4.285551        -1.323810        -0.939062
