19
Iteration:  2291charge 0 multiplicity 1
 C         0.079873         0.187297        -0.237493
 C         1.449777        -0.225102         0.371662
 C         1.229138        -0.903818         1.726881
 C         2.590677        -1.374523         2.309888
 C         3.721270        -0.803827         1.491038
 C         3.598144         0.465749         0.745209
 O         2.276297         0.939231         0.497641
 C         3.680763        -0.832425        -0.047720
 O         2.308756        -1.108157        -0.478893
 H        -0.524957         0.760381         0.484340
 H         0.127680         0.806811        -1.140462
 H        -0.583379        -0.613575        -0.679435
 H         0.805599        -0.081800         2.352628
 H         0.529252        -1.806852         1.900002
 H         2.760629        -1.170961         3.439663
 H         2.659376        -2.499608         2.107600
 H         4.770433        -0.969064         1.847997
 H         4.301125         1.249951         0.715950
 H         4.658296        -1.188552        -0.562935
