19
Iteration:  3294
 C         0.202111         0.359485        -0.377250
 C         1.433098        -0.295993         0.351188
 C         1.260171        -1.045293         1.715838
 C         2.613812        -1.056298         2.484877
 C         3.791950        -0.882356         1.476720
 C         3.566363         0.475597         0.542604
 O         2.237032         0.827992         0.697244
 C         3.559333        -0.907576        -0.071384
 O         2.242388        -1.181670        -0.508964
 H         0.002728         1.189539         0.243870
 H         0.467962         0.647763        -1.439956
 H        -0.581233        -0.305195        -0.128191
 H         0.458537        -0.502513         2.360900
 H         0.994983        -2.112571         1.765431
 H         2.735805        -0.173463         3.128026
 H         2.975004        -1.813424         3.125687
 H         4.771414        -1.178673         1.895193
 H         4.191595         1.429741         0.365934
 H         4.244139        -1.361120        -0.719999
