19
Iteration:  2286charge 0 multiplicity 1
 C         0.091045         0.206756        -0.281292
 C         1.442670        -0.213699         0.414319
 C         1.236496        -0.881302         1.724361
 C         2.617830        -1.416352         2.282570
 C         3.728780        -0.806240         1.469252
 C         3.572137         0.496037         0.779252
 O         2.272742         0.931802         0.483821
 C         3.680728        -0.823893        -0.036357
 O         2.279322        -1.157423        -0.452837
 H        -0.539573         0.662218         0.499538
 H         0.433029         0.838498        -1.131295
 H        -0.461457        -0.697851        -0.541415
 H         0.941471        -0.040126         2.344804
 H         0.465704        -1.593898         1.723301
 H         2.754648        -1.253399         3.301545
 H         2.714540        -2.513537         2.169396
 H         4.706986        -0.842526         1.895097
 H         4.319752         1.361092         0.766835
 H         4.453771        -1.105219        -0.668972
