19
Iteration:  1403
 C         0.101426         0.006544        -0.244583
 C         1.526390        -0.185435         0.380680
 C         1.288941        -0.977428         1.637102
 C         2.594050        -1.324506         2.398454
 C         3.758229        -0.831716         1.480610
 C         3.611921         0.434084         0.714992
 O         2.312965         0.982596         0.683792
 C         3.516014        -0.885069        -0.044339
 O         2.257480        -0.873131        -0.621934
 H        -0.604134         0.717475         0.204025
 H         0.205266         0.280713        -1.336183
 H        -0.440721        -0.907572        -0.371004
 H         0.602311        -0.347167         2.177960
 H         0.827010        -1.976915         1.432583
 H         2.577940        -0.753625         3.360211
 H         2.673259        -2.380996         2.885231
 H         4.823863        -1.190698         1.813049
 H         4.281932         1.267099         0.783340
 H         4.225253        -1.341285        -0.732643
