19
Iteration:     9
 C         0.093439         0.165348        -0.282820
 C         1.464825        -0.275742         0.400432
 C         1.223823        -1.022745         1.676585
 C         2.693964        -1.341550         2.286935
 C         3.771759        -0.866591         1.463302
 C         3.562418         0.455572         0.784805
 O         2.258438         0.954978         0.725871
 C         3.597777        -0.732527        -0.107714
 O         2.314942        -0.995001        -0.519863
 H        -0.610045         0.594498         0.339795
 H        -0.031819         0.653253        -1.281901
 H        -0.490418        -0.700538        -0.618952
 H         0.554281        -0.443523         2.313228
 H         0.729504        -1.967755         1.313608
 H         2.725819        -0.740833         3.252996
 H         2.746016        -2.404960         2.408858
 H         4.894834        -1.209564         1.708101
 H         4.190869         1.307597         0.616963
 H         4.284846        -1.079546        -0.916083
