19
Iteration:  4267charge 0 multiplicity 1
 C         0.138369         0.033762        -0.255541
 C         1.505510        -0.153715         0.352381
 C         1.213468        -0.842767         1.672594
 C         2.545391        -1.037255         2.409874
 C         3.745826        -0.940753         1.475393
 C         3.655489         0.346673         0.526899
 O         2.434225         0.955617         0.637729
 C         3.517103        -1.039663        -0.014133
 O         2.189241        -1.020736        -0.443512
 H        -0.490467         0.755737         0.311401
 H         0.298216         0.491918        -1.214236
 H        -0.418643        -0.911177        -0.415084
 H         0.451620        -0.023253         2.105944
 H         0.691748        -1.746834         1.420825
 H         2.587447        -0.223001         3.202212
 H         2.719636        -1.858725         3.070994
 H         4.689349        -1.323682         1.937782
 H         4.519354         0.984986         0.361944
 H         4.185504        -1.554491        -0.813840
