19
Iteration:  2610charge 0 multiplicity 1
 C         0.158298         0.307556        -0.282955
 C         1.456124        -0.238853         0.394122
 C         1.290565        -1.110934         1.643136
 C         2.629172        -1.077544         2.412029
 C         3.766403        -0.849032         1.508517
 C         3.642065         0.449470         0.652055
 O         2.215004         0.898538         0.656836
 C         3.547479        -0.938899        -0.051908
 O         2.253770        -1.103426        -0.544920
 H        -0.585029         0.807092         0.458391
 H         0.412856         0.958992        -1.154765
 H        -0.593343        -0.548889        -0.553037
 H         0.416344        -0.773679         2.297557
 H         0.904680        -2.049083         1.227242
 H         2.568873        -0.310127         3.161654
 H         2.912067        -2.009491         2.979399
 H         4.731908        -1.314764         1.675218
 H         4.377366         1.185792         0.498479
 H         4.530299        -1.226832        -0.597141
