19
Iteration:  1242
 C         0.181123         0.321018        -0.334206
 C         1.420514        -0.299290         0.382360
 C         1.323185        -1.192650         1.630193
 C         2.639279        -1.287111         2.366320
 C         3.746168        -0.748363         1.515060
 C         3.607265         0.532096         0.610578
 O         2.227038         0.908450         0.754162
 C         3.519837        -0.816681        -0.022363
 O         2.238203        -1.068776        -0.519464
 H        -0.321217         1.011140         0.365627
 H         0.550688         0.922753        -1.242648
 H        -0.370063        -0.572863        -0.711578
 H         0.410005        -0.893115         2.318048
 H         0.998742        -2.177271         1.296238
 H         2.458655        -0.849572         3.360474
 H         2.987023        -2.230275         2.674327
 H         4.880341        -0.901214         1.748331
 H         4.415538         1.266334         0.477570
 H         4.350817        -1.174046        -0.728354
