19
Iteration:  3327
 C         0.160475         0.141031        -0.300672
 C         1.431836        -0.208869         0.369339
 C         1.206940        -0.941197         1.767520
 C         2.628655        -1.218879         2.396733
 C         3.785925        -0.858573         1.499317
 C         3.612890         0.490628         0.603703
 O         2.337372         0.992168         0.507433
 C         3.580613        -0.955775         0.001665
 O         2.214496        -1.083265        -0.457710
 H        -0.296229         0.916030         0.306616
 H         0.122627         0.520313        -1.361176
 H        -0.447972        -0.740960        -0.355716
 H         0.415688        -0.394848         2.464729
 H         0.703552        -1.922428         1.601723
 H         2.843140        -0.631962         3.295599
 H         2.640523        -2.281304         2.703259
 H         4.712794        -1.229813         1.996386
 H         4.450391         1.254688         0.317257
 H         4.198844        -1.463990        -0.734529
