19
Iteration:  3686
 C         0.115214         0.153429        -0.345548
 C         1.433733        -0.127429         0.420780
 C         1.225296        -0.926896         1.735539
 C         2.674380        -1.208594         2.409775
 C         3.814244        -0.881628         1.524990
 C         3.596660         0.347835         0.610491
 O         2.316673         0.965945         0.532048
 C         3.546635        -0.936611        -0.041815
 O         2.232222        -1.045185        -0.458030
 H        -0.664761         0.897214         0.020443
 H         0.472687         0.508464        -1.296398
 H        -0.360174        -0.848039        -0.531555
 H         0.740632        -0.201021         2.514628
 H         0.533208        -1.799413         1.664716
 H         2.855733        -0.616519         3.336115
 H         2.606852        -2.250504         2.738300
 H         4.754040        -1.252919         1.965455
 H         4.273493         1.227039         0.470508
 H         4.192818        -1.490045        -0.754944
