19
Iteration:  2359
 C         0.191028         0.311527        -0.391037
 C         1.428908        -0.250370         0.388016
 C         1.258243        -1.197112         1.686371
 C         2.613033        -1.066363         2.401785
 C         3.851917        -0.924041         1.441695
 C         3.563094         0.411628         0.650523
 O         2.226242         0.878645         0.786689
 C         3.558490        -0.853324        -0.083628
 O         2.232671        -1.021939        -0.481212
 H        -0.289778         1.205179         0.049260
 H         0.713304         0.383041        -1.429115
 H        -0.517846        -0.489386        -0.572587
 H         0.451974        -0.704852         2.376814
 H         0.975598        -2.275770         1.309035
 H         2.527545         0.004321         2.973539
 H         2.827319        -1.828212         3.178443
 H         4.874769        -1.240597         1.635167
 H         4.321817         1.155623         0.360591
 H         4.250430        -1.159422        -0.800554
