19
Iteration:   849
 C         0.187266         0.058970        -0.489271
 C         1.414659        -0.241185         0.402729
 C         1.277590        -0.932636         1.794455
 C         2.701276        -1.456359         2.194012
 C         3.807552        -0.921552         1.433143
 C         3.510545         0.496056         0.880430
 O         2.099518         0.985598         0.707973
 C         3.636526        -0.668184        -0.113323
 O         2.289162        -0.990772        -0.461915
 H        -0.378923         0.857621        -0.000630
 H         0.586559         0.508366        -1.399751
 H        -0.301604        -0.922878        -0.498155
 H         1.007673        -0.231693         2.586126
 H         0.442475        -1.648812         1.921012
 H         2.918865        -1.196825         3.293366
 H         2.547141        -2.589309         2.170602
 H         4.921116        -1.073061         1.704119
 H         4.296458         1.173899         1.099841
 H         4.367735        -0.865943        -0.953465
