19
Iteration:  2157
 C         0.181381         0.331812        -0.268480
 C         1.471537        -0.276755         0.322903
 C         1.273407        -1.267666         1.580777
 C         2.607466        -1.127574         2.395242
 C         3.724042        -0.818116         1.507258
 C         3.604455         0.473171         0.626675
 O         2.246977         0.954926         0.734639
 C         3.536302        -0.866747        -0.061071
 O         2.265545        -1.086901        -0.498825
 H        -0.149012         1.009291         0.486315
 H         0.355045         0.893566        -1.170805
 H        -0.409630        -0.493488        -0.486062
 H         0.469188        -0.868569         2.205339
 H         1.021388        -2.300398         1.276043
 H         2.561104        -0.383942         3.140649
 H         2.909764        -2.094957         2.910315
 H         4.696987        -1.014403         1.967468
 H         4.328575         1.284061         0.464174
 H         4.288688        -1.353706        -0.721212
