19
Iteration:   573charge 0 multiplicity 1
 C         0.133889         0.143818        -0.294479
 C         1.465462        -0.188888         0.402251
 C         1.301269        -1.179428         1.605578
 C         2.620761        -1.357370         2.244039
 C         3.744790        -0.829742         1.440107
 C         3.593389         0.514222         0.809566
 O         2.188011         1.014224         0.659102
 C         3.573962        -0.722858        -0.035564
 O         2.308847        -1.053878        -0.460454
 H        -0.630560         0.458555         0.429112
 H         0.362805         0.914534        -0.991091
 H        -0.168976        -0.790812        -0.672437
 H         0.638586        -0.649071         2.361349
 H         0.889089        -2.016111         1.002093
 H         2.656674        -0.868537         3.205256
 H         2.843466        -2.346692         2.453352
 H         4.669834        -0.972214         1.818743
 H         4.308438         1.267106         0.999305
 H         4.335155        -0.970043        -0.756143
