19
Iteration:  3107charge 0 multiplicity 1
 C         0.039953         0.108122        -0.237892
 C         1.418434        -0.183165         0.329882
 C         1.271334        -0.926021         1.708221
 C         2.603318        -1.301361         2.390846
 C         3.771834        -0.889845         1.571136
 C         3.590455         0.414439         0.678062
 O         2.318574         1.066235         0.421255
 C         3.625495        -0.905652         0.082119
 O         2.305786        -1.071895        -0.537072
 H        -0.372367         0.982098         0.342751
 H         0.045350         0.295125        -1.300006
 H        -0.765834        -0.634218         0.031510
 H         0.683279        -0.218813         2.346867
 H         0.604268        -1.724075         1.548834
 H         2.827105        -0.748336         3.358138
 H         2.677531        -2.354239         2.626707
 H         4.802899        -1.141846         1.937149
 H         4.452476         1.069160         0.562284
 H         4.268829        -1.284199        -0.794108
