19
Iteration:   980
 C         0.222621         0.172880        -0.367410
 C         1.414941        -0.258079         0.409509
 C         1.234325        -1.214335         1.539797
 C         2.670768        -1.195159         2.263533
 C         3.783314        -0.843985         1.400913
 C         3.567455         0.477516         0.717613
 O         2.200187         0.927203         0.896600
 C         3.571920        -0.758829        -0.075570
 O         2.272558        -1.003524        -0.431237
 H        -0.420374         0.813761         0.289014
 H         0.557570         0.667937        -1.272469
 H        -0.432803        -0.593686        -0.755808
 H         0.576185        -0.783729         2.247243
 H         1.008657        -2.188273         1.191939
 H         2.694687        -0.423949         3.093583
 H         2.557979        -2.173966         2.795668
 H         4.762204        -1.068036         1.736390
 H         4.318843         1.333068         0.600668
 H         4.285122        -0.977428        -0.936718
