19
Iteration:  2349
 C         0.157595         0.206979        -0.407055
 C         1.397459        -0.200846         0.421109
 C         1.236953        -1.152817         1.703446
 C         2.641329        -1.097625         2.473841
 C         3.813942        -0.998565         1.364980
 C         3.630699         0.426833         0.676079
 O         2.259464         0.922812         0.720594
 C         3.602779        -0.847962        -0.054044
 O         2.204434        -1.003353        -0.497199
 H        -0.279026         1.135623         0.014914
 H         0.580489         0.664943        -1.410711
 H        -0.593760        -0.544967        -0.429469
 H         0.196968        -1.037054         2.253064
 H         1.126822        -2.177430         1.152433
 H         2.752672        -0.053580         3.091470
 H         2.621151        -1.861234         3.208827
 H         4.788644        -1.195877         1.762338
 H         4.318455         1.295230         0.435907
 H         4.352428        -1.028514        -0.703743
