19
Iteration:  3432charge 0 multiplicity 1
 C         0.152399         0.134604        -0.331981
 C         1.430486        -0.151049         0.376101
 C         1.259961        -0.825440         1.793365
 C         2.637709        -1.371799         2.339652
 C         3.803752        -0.759910         1.526338
 C         3.608209         0.450012         0.558418
 O         2.311600         0.997512         0.508752
 C         3.635096        -0.934411         0.037555
 O         2.145254        -1.151668        -0.408251
 H        -0.579202         0.873379        -0.022225
 H         0.355089         0.397163        -1.436333
 H        -0.539211        -0.725268        -0.360679
 H         0.806426        -0.114516         2.438717
 H         0.604563        -1.678654         1.663195
 H         2.594692        -1.034986         3.402680
 H         2.613368        -2.506518         2.417230
 H         4.826612        -0.982122         1.896506
 H         4.501656         1.136968         0.547380
 H         4.234338        -1.454611        -0.663647
