19
Iteration:  3768
 C         0.164236         0.256340        -0.201673
 C         1.494050        -0.171377         0.404536
 C         1.327385        -1.017900         1.656418
 C         2.597929        -1.118792         2.505405
 C         3.674033        -0.813970         1.535912
 C         3.676921         0.396775         0.558121
 O         2.316250         0.965934         0.521715
 C         3.464945        -1.039462         0.006964
 O         2.198914        -1.110708        -0.567513
 H        -0.260136         0.936662         0.501499
 H         0.465899         0.573521        -1.229465
 H        -0.357762        -0.694482        -0.328269
 H         0.499064        -0.658834         2.202486
 H         1.165639        -2.028678         1.258168
 H         2.675829        -0.243453         3.197195
 H         2.424728        -2.061772         3.094841
 H         4.653853        -1.143701         1.807508
 H         4.450591         1.041562         0.320367
 H         4.301635        -1.358442        -0.600119
