19
Iteration:   671
 C         0.123306         0.123291        -0.251897
 C         1.455026        -0.217855         0.330975
 C         1.246775        -1.051796         1.677513
 C         2.616390        -1.546777         2.159240
 C         3.742094        -0.641599         1.571820
 C         3.574648         0.574183         0.717967
 O         2.204894         0.940115         0.649044
 C         3.661804        -0.753900        -0.006972
 O         2.304531        -1.059061        -0.495117
 H        -0.307456         0.755754         0.573265
 H         0.311244         0.679826        -1.159509
 H        -0.513134        -0.749331        -0.371438
 H         0.843707        -0.178442         2.307462
 H         0.653001        -2.034424         1.625777
 H         2.660846        -1.752120         3.253280
 H         2.777251        -2.485276         1.527033
 H         4.645164        -0.687965         2.021149
 H         4.157387         1.558390         0.934804
 H         4.637629        -1.081715        -0.475901
