19
Iteration:  1452charge 0 multiplicity 1
 C         0.252847         0.283360        -0.275058
 C         1.431856        -0.267687         0.373797
 C         1.246613        -1.238775         1.576766
 C         2.631083        -1.147468         2.394378
 C         3.834442        -0.742540         1.445093
 C         3.621125         0.428685         0.642604
 O         2.176679         0.874799         0.789825
 C         3.570299        -0.825725        -0.039609
 O         2.197686        -1.066116        -0.574365
 H        -0.157877         1.070463         0.413794
 H         0.439574         0.881622        -1.159494
 H        -0.523921        -0.468921        -0.605514
 H         0.566521        -0.763280         2.307134
 H         0.923450        -2.210686         1.333820
 H         2.478626        -0.431369         3.265995
 H         2.874046        -2.032209         3.016562
 H         4.728426        -0.930596         1.892638
 H         4.247131         1.317112         0.419220
 H         4.428960        -1.309928        -0.663639
