19
Iteration:  4981charge 0 multiplicity 1
 C         0.234049         0.145658        -0.358548
 C         1.459157        -0.209817         0.473022
 C         1.160975        -0.818562         1.815198
 C         2.575203        -1.225277         2.284370
 C         3.815710        -0.805397         1.458512
 C         3.698959         0.410551         0.519739
 O         2.312459         0.962805         0.559437
 C         3.534949        -1.011741        -0.002095
 O         2.171170        -1.093533        -0.365500
 H        -0.520980         0.610259         0.279697
 H         0.479922         0.813499        -1.181407
 H        -0.173061        -0.846045        -0.567142
 H         0.516319        -0.148504         2.499632
 H         0.591554        -1.653913         1.633728
 H         2.814706        -0.831002         3.365510
 H         2.602237        -2.310203         2.396784
 H         4.670204        -1.135101         2.041297
 H         4.358052         1.115809         0.066678
 H         4.233599        -1.401482        -0.833264
