19
Iteration:  2676
 C         0.152946         0.014037        -0.454533
 C         1.414623        -0.167207         0.335043
 C         1.268914        -0.808732         1.818255
 C         2.650959        -1.405730         2.283648
 C         3.795937        -0.768154         1.493172
 C         3.603099         0.394234         0.699446
 O         2.281122         1.038204         0.620812
 C         3.576662        -0.895803        -0.037654
 O         2.204985        -1.026856        -0.373939
 H        -0.463796         0.660575         0.295556
 H         0.297330         0.696346        -1.297297
 H        -0.284958        -1.088246        -0.563141
 H         0.829405        -0.051612         2.513823
 H         0.451071        -1.512974         1.751599
 H         2.841760        -1.403873         3.349778
 H         2.619321        -2.540464         2.066457
 H         4.750649        -1.154983         1.812399
 H         4.463872         1.000542         0.484302
 H         4.217560        -1.184302        -0.922815
