19
Iteration:   925charge 0 multiplicity 1
 C         0.121931         0.081495        -0.265035
 C         1.502009        -0.189514         0.373501
 C         1.276463        -1.024151         1.666311
 C         2.605680        -1.465942         2.278827
 C         3.770630        -0.910472         1.456613
 C         3.552595         0.583639         0.842766
 O         2.151274         1.021914         0.591313
 C         3.645989        -0.759655        -0.024313
 O         2.329634        -1.020988        -0.532144
 H        -0.595513         0.465357         0.505052
 H         0.247965         0.938245        -0.931112
 H        -0.246773        -0.909995        -0.611785
 H         0.763705        -0.370691         2.399219
 H         0.678641        -1.851345         1.436755
 H         2.831346        -0.984282         3.296344
 H         2.517095        -2.633596         2.333977
 H         4.803702        -1.003682         1.845435
 H         4.197962         1.493117         0.740454
 H         4.461745        -0.993686        -0.823663
