19
Iteration:  2562charge 0 multiplicity 1
 C         0.154037         0.174073        -0.270755
 C         1.443492        -0.216765         0.361315
 C         1.249103        -1.072427         1.702431
 C         2.618333        -1.064747         2.451084
 C         3.731506        -0.978322         1.404276
 C         3.604419         0.437585         0.740959
 O         2.289183         0.908701         0.633012
 C         3.521840        -0.874720        -0.070009
 O         2.284667        -0.996140        -0.582091
 H        -0.342304         1.037360         0.160458
 H         0.303785         0.377742        -1.389639
 H        -0.547705        -0.611201        -0.087016
 H         0.467948        -0.816277         2.338824
 H         0.998144        -2.095671         1.423879
 H         2.845751        -0.267467         3.176272
 H         2.722757        -1.998339         3.059216
 H         4.795703        -1.158400         1.678288
 H         4.415901         1.232574         0.710096
 H         4.342587        -1.212061        -0.637109
