19
Iteration:  3313charge 0 multiplicity 1
 C         0.171889         0.238609        -0.275398
 C         1.446077        -0.275816         0.367007
 C         1.270016        -0.948449         1.694509
 C         2.624963        -1.086508         2.414298
 C         3.807204        -0.828146         1.444069
 C         3.613591         0.376983         0.691102
 O         2.235297         0.913819         0.585676
 C         3.554017        -0.933740        -0.046024
 O         2.220383        -1.174386        -0.481616
 H        -0.166099         1.131235         0.232993
 H         0.561131         0.550835        -1.280056
 H        -0.711175        -0.434302        -0.304219
 H         0.569737        -0.267741         2.347220
 H         0.831653        -1.882530         1.385133
 H         2.583525        -0.371876         3.238793
 H         2.686798        -2.180611         2.774193
 H         4.878497        -0.837822         1.731134
 H         4.342667         1.095034         0.508924
 H         4.335133        -1.213318        -0.689990
