19
Iteration:  4263
 C         0.119599         0.069230        -0.274708
 C         1.478263        -0.179639         0.347476
 C         1.231113        -0.832584         1.660395
 C         2.561482        -1.043992         2.448558
 C         3.757158        -0.943696         1.485550
 C         3.648054         0.313233         0.534393
 O         2.416779         0.964993         0.632761
 C         3.531447        -1.041353        -0.029677
 O         2.198439        -1.016213        -0.453348
 H        -0.451216         0.733915         0.403536
 H         0.410166         0.525767        -1.224217
 H        -0.358502        -0.915923        -0.403531
 H         0.608302        -0.162100         2.151663
 H         0.536031        -1.724392         1.427072
 H         2.578198        -0.202937         3.093236
 H         2.717972        -1.884115         3.150379
 H         4.697164        -1.181801         1.955882
 H         4.442777         1.024689         0.320179
 H         4.112786        -1.543374        -0.725133
