19
Iteration:  3764
 C         0.161857         0.254468        -0.243195
 C         1.484900        -0.160472         0.421475
 C         1.377472        -1.082562         1.631415
 C         2.577585        -1.084428         2.542156
 C         3.691102        -0.795538         1.491000
 C         3.693224         0.373292         0.585330
 O         2.304988         0.977403         0.517260
 C         3.466339        -1.003025         0.004675
 O         2.181751        -1.128404        -0.547612
 H        -0.254769         0.983532         0.454373
 H         0.406114         0.781349        -1.203848
 H        -0.498433        -0.596738        -0.369651
 H         0.429679        -0.705572         2.270913
 H         1.105168        -2.058875         1.284181
 H         2.624298        -0.263713         3.279811
 H         2.556779        -2.019523         3.110593
 H         4.655342        -1.302197         1.791844
 H         4.596723         1.038862         0.345149
 H         4.218316        -1.516484        -0.593147
