19
Iteration:  4533
 C         0.152929         0.142105        -0.283946
 C         1.491320        -0.159208         0.361573
 C         1.287373        -0.930696         1.683494
 C         2.568139        -1.119019         2.541543
 C         3.733793        -0.913110         1.505539
 C         3.639155         0.370197         0.540177
 O         2.448855         1.046421         0.539998
 C         3.419699        -0.977117         0.019030
 O         2.166190        -1.100988        -0.512385
 H        -0.355075         1.044835         0.126631
 H         0.361765         0.290189        -1.294704
 H        -0.459301        -0.772864        -0.140794
 H         0.455268        -0.365597         2.265147
 H         0.993781        -1.927058         1.373384
 H         2.663822        -0.375229         3.342403
 H         2.649803        -2.113318         3.004489
 H         4.645246        -1.419476         1.843610
 H         4.496867         0.977062         0.305259
 H         4.257825        -1.473069        -0.595484
