19
Iteration:   530
 C         0.121242         0.256539        -0.258359
 C         1.442744        -0.316634         0.325626
 C         1.315050        -1.244714         1.530405
 C         2.641832        -1.187107         2.400042
 C         3.760425        -0.779465         1.533057
 C         3.567231         0.533470         0.753933
 O         2.190096         0.861671         0.851964
 C         3.595464        -0.851286        -0.028564
 O         2.310605        -0.959145        -0.745118
 H        -0.333474         0.800758         0.599445
 H         0.411433         0.911675        -1.043739
 H        -0.516634        -0.570901        -0.457551
 H         0.520559        -0.743536         2.132408
 H         1.226809        -2.342675         1.370831
 H         2.509376        -0.459727         3.179871
 H         2.757471        -2.151769         2.688289
 H         4.623786        -1.105716         1.874038
 H         4.182302         1.385103         0.706721
 H         4.337152        -1.148674        -0.752139
