19
Iteration:  1617
 C         0.161902         0.155340        -0.321063
 C         1.456758        -0.216803         0.370264
 C         1.197499        -0.940176         1.713163
 C         2.671048        -1.431977         2.290732
 C         3.776790        -0.768473         1.441887
 C         3.569976         0.539903         0.704813
 O         2.213007         0.936536         0.657238
 C         3.592655        -0.841817         0.011459
 O         2.285683        -1.065584        -0.478680
 H        -0.323881         0.901666         0.320588
 H         0.532004         0.483041        -1.348397
 H        -0.302689        -0.784639        -0.509267
 H         0.836405        -0.103200         2.310152
 H         0.523454        -1.748057         1.638069
 H         2.708302        -1.274653         3.421135
 H         2.776955        -2.583704         2.308967
 H         4.754097        -1.086305         1.870407
 H         4.215651         1.357716         0.430456
 H         4.237273        -1.101313        -0.747406
