19
Iteration:  4891charge 0 multiplicity 1
 C         0.160775         0.232046        -0.240216
 C         1.478524        -0.209431         0.398878
 C         1.248375        -0.930265         1.638751
 C         2.599342        -1.171269         2.343848
 C         3.754179        -0.824859         1.525170
 C         3.638482         0.398697         0.508805
 O         2.360824         0.961460         0.510027
 C         3.492699        -1.012565         0.087956
 O         2.186560        -1.092526        -0.387933
 H        -0.281053         1.048163         0.275387
 H         0.337361         0.320637        -1.331268
 H        -0.528984        -0.566866        -0.014933
 H         0.528411        -0.271614         2.227418
 H         0.835176        -1.819760         1.281675
 H         2.544753        -0.664630         3.361000
 H         2.862497        -2.255151         2.619759
 H         4.790988        -1.042002         1.880038
 H         4.534025         0.996578         0.216217
 H         4.207926        -1.490201        -0.543204
