19
Iteration:  3187charge 0 multiplicity 1
 C         0.188227         0.150459        -0.436654
 C         1.345714        -0.206292         0.398758
 C         1.277169        -0.777772         1.838494
 C         2.650100        -1.403356         2.265363
 C         3.793028        -0.770760         1.490822
 C         3.600872         0.421336         0.658693
 O         2.280978         1.016236         0.504585
 C         3.624922        -0.898017         0.003391
 O         2.160234        -1.192942        -0.324529
 H        -0.602235         0.610977         0.137930
 H         0.494369         0.987210        -1.172338
 H        -0.143031        -0.701749        -1.015891
 H         0.981299        -0.034849         2.480548
 H         0.624917        -1.677499         1.981201
 H         2.785346        -1.132432         3.372409
 H         2.670202        -2.512950         2.150093
 H         4.790607        -0.829017         1.907686
 H         4.428533         1.173872         0.486815
 H         4.203570        -1.300112        -0.748223
