19
Iteration:  2347
 C         0.165064         0.189267        -0.404741
 C         1.389082        -0.198810         0.437215
 C         1.238368        -1.130132         1.694097
 C         2.642120        -1.100908         2.474880
 C         3.794047        -1.002915         1.371889
 C         3.646332         0.441209         0.682363
 O         2.271383         0.932112         0.706151
 C         3.587605        -0.851034        -0.056071
 O         2.205640        -1.002620        -0.507404
 H        -0.275757         1.112986         0.039593
 H         0.475070         0.684946        -1.427811
 H        -0.626634        -0.588950        -0.435999
 H         0.212815        -1.082479         2.269182
 H         1.171032        -2.197050         1.150005
 H         2.779280        -0.059790         3.111083
 H         2.633547        -1.975223         3.236332
 H         4.801318        -1.199425         1.823089
 H         4.293941         1.264610         0.526538
 H         4.408027        -1.049023        -0.779278
