19
Iteration:  2026
 C         0.180657         0.088245        -0.467243
 C         1.413580        -0.262880         0.391002
 C         1.315097        -0.792328         1.876720
 C         2.620937        -1.557094         2.137087
 C         3.804243        -0.802298         1.535154
 C         3.584331         0.521315         0.705842
 O         2.181128         0.989602         0.654798
 C         3.601733        -0.768287        -0.007377
 O         2.241455        -1.075508        -0.429447
 H        -0.521959         0.607979         0.141225
 H         0.457610         0.671647        -1.364930
 H        -0.366813        -0.735557        -0.757104
 H         1.175831         0.047385         2.558549
 H         0.336731        -1.400023         1.819870
 H         2.801349        -1.616418         3.189629
 H         2.497073        -2.579461         1.758858
 H         4.882850        -0.783087         1.887766
 H         4.337052         1.262465         0.744559
 H         4.446417        -1.273104        -0.548996
