19
Iteration:   333
 C         0.083019         0.268022        -0.305325
 C         1.395466        -0.237119         0.430461
 C         1.292731        -1.291884         1.536887
 C         2.649873        -1.302376         2.364866
 C         3.816840        -0.694851         1.498614
 C         3.558514         0.471851         0.674181
 O         2.228461         0.902748         0.742019
 C         3.598982        -0.825447        -0.017100
 O         2.287045        -0.936816        -0.548706
 H        -0.356869         0.955479         0.407175
 H         0.562852         0.767315        -1.202008
 H        -0.482164        -0.649135        -0.519500
 H         0.499590        -0.968876         2.245958
 H         0.932256        -2.269872         1.173852
 H         2.515561        -0.895648         3.373332
 H         2.877242        -2.369461         2.627921
 H         4.773654        -0.970116         1.810762
 H         4.316069         1.273088         0.566474
 H         4.424271        -1.035315        -0.681823
