19
Iteration:  4512charge 0 multiplicity 1
 C         0.083416         0.144639        -0.325845
 C         1.461029        -0.209210         0.400551
 C         1.179108        -0.785363         1.746032
 C         2.581825        -1.050765         2.397183
 C         3.782525        -0.932950         1.435149
 C         3.705667         0.340446         0.692607
 O         2.349906         0.876435         0.571825
 C         3.589044        -1.017440        -0.093415
 O         2.200727        -1.055646        -0.488473
 H        -0.318808         1.038093         0.223613
 H         0.230990         0.307093        -1.339807
 H        -0.533356        -0.742349        -0.067567
 H         0.653331         0.013851         2.415126
 H         0.575402        -1.756212         1.599652
 H         2.712757        -0.316128         3.152305
 H         2.773542        -2.040690         2.850150
 H         4.737339        -1.113015         1.993348
 H         4.518203         1.037898         0.775872
 H         4.308138        -1.492630        -0.885395
