19
Iteration:   704
 C         0.160225         0.123071        -0.364962
 C         1.417447        -0.232657         0.364146
 C         1.320813        -1.074753         1.659916
 C         2.680309        -1.391114         2.342652
 C         3.785357        -0.919140         1.428945
 C         3.529586         0.502603         0.842739
 O         2.142313         0.927665         0.683923
 C         3.627887        -0.682998        -0.058640
 O         2.300954        -0.951302        -0.542566
 H        -0.351697         0.792675         0.346312
 H         0.382096         0.690342        -1.277682
 H        -0.375017        -0.803541        -0.641450
 H         0.592443        -0.540734         2.367217
 H         0.584626        -1.915841         1.572752
 H         2.813833        -0.906359         3.360398
 H         2.746874        -2.515749         2.621024
 H         4.789955        -1.027657         1.706052
 H         4.057715         1.515784         0.998236
 H         4.464498        -0.864136        -0.809837
