19
Iteration:  3797
 C         0.033511         0.161588        -0.283914
 C         1.429379        -0.262681         0.338801
 C         1.222192        -0.850005         1.743932
 C         2.597067        -1.170801         2.398636
 C         3.729891        -0.880370         1.502217
 C         3.780216         0.400565         0.673276
 O         2.313526         0.928689         0.541824
 C         3.583561        -0.952389        -0.097129
 O         2.258757        -1.086448        -0.472031
 H        -0.252928         1.012610         0.338017
 H         0.155784         0.431820        -1.365389
 H        -0.668794        -0.634739        -0.159796
 H         0.743315         0.094353         2.314931
 H         0.576882        -1.691737         1.779069
 H         2.748904        -0.494543         3.245134
 H         2.478955        -2.154148         2.804731
 H         4.729183        -1.288509         1.775049
 H         4.548562         1.210610         0.635866
 H         4.334997        -1.372553        -0.715754
