19
Iteration:  2667charge 0 multiplicity 1
 C         0.120185         0.075601        -0.389013
 C         1.448000        -0.214581         0.383446
 C         1.237337        -0.816443         1.706792
 C         2.675943        -1.422658         2.344668
 C         3.830871        -0.821043         1.516271
 C         3.593367         0.450589         0.612923
 O         2.335520         1.020991         0.642713
 C         3.522551        -0.882240         0.029686
 O         2.176538        -1.045467        -0.449027
 H        -0.704377         0.505012         0.176102
 H         0.244642         0.590558        -1.325229
 H        -0.211396        -0.933685        -0.763774
 H         0.951222        -0.011098         2.437774
 H         0.524256        -1.648640         1.630465
 H         2.712907        -1.222111         3.434602
 H         2.725017        -2.459346         2.152752
 H         4.823249        -0.845285         1.928838
 H         4.418436         1.180313         0.515647
 H         4.242030        -1.244445        -0.655342
