19
Iteration:   541charge 0 multiplicity 1
 C         0.132074         0.309768        -0.234369
 C         1.440479        -0.282331         0.302939
 C         1.377850        -1.290524         1.557433
 C         2.624363        -1.293525         2.452486
 C         3.735104        -0.749729         1.536490
 C         3.575470         0.481635         0.655933
 O         2.164636         0.847479         0.743588
 C         3.561177        -0.786697        -0.041250
 O         2.350947        -0.934488        -0.630507
 H        -0.441126         0.783078         0.582261
 H         0.207895         1.040897        -1.003816
 H        -0.491429        -0.390708        -0.725789
 H         0.536661        -0.924240         2.203027
 H         0.890133        -2.268044         1.282102
 H         2.411204        -0.690056         3.321060
 H         2.982999        -2.152623         2.848680
 H         4.652468        -0.871184         1.873609
 H         4.254923         1.282345         0.650826
 H         4.448696        -1.136430        -0.517248
