19
Iteration:  1445charge 0 multiplicity 1
 C         0.188104         0.287351        -0.269396
 C         1.419310        -0.278631         0.384476
 C         1.277392        -1.192836         1.595818
 C         2.615693        -1.108495         2.433456
 C         3.792172        -0.803608         1.403490
 C         3.592491         0.483765         0.690676
 O         2.209291         0.859122         0.768886
 C         3.598042        -0.879685        -0.081942
 O         2.259713        -1.035888        -0.560526
 H        -0.337105         0.924213         0.460804
 H         0.575522         0.633178        -1.267246
 H        -0.512565        -0.517355        -0.457272
 H         0.543081        -0.732788         2.254989
 H         0.878501        -2.250201         1.220953
 H         2.531924        -0.315789         3.131820
 H         2.716748        -2.085000         2.861412
 H         4.842043        -1.098226         1.759351
 H         4.204097         1.370859         0.748765
 H         4.312388        -1.252267        -0.840415
