19
Iteration:  2499charge 0 multiplicity 1
 C         0.191606         0.157306        -0.360889
 C         1.436708        -0.186651         0.448958
 C         1.265226        -0.911167         1.760233
 C         2.645617        -1.473714         2.258649
 C         3.774655        -0.790726         1.466031
 C         3.528159         0.438584         0.632493
 O         2.238194         1.069006         0.508918
 C         3.580417        -0.868619        -0.017731
 O         2.271575        -1.124988        -0.301114
 H        -0.468379         0.799664         0.273938
 H         0.720047         0.600911        -1.308065
 H        -0.396191        -0.652645        -0.773382
 H         1.041647        -0.072307         2.430780
 H         0.409240        -1.633169         1.739227
 H         2.573649        -1.321861         3.271253
 H         2.673320        -2.614451         2.077099
 H         4.740079        -0.612863         1.880916
 H         4.372038         1.182833         0.681480
 H         4.166778        -1.214550        -0.762614
