19
Iteration:  1935
 C         0.149775         0.319055        -0.186430
 C         1.456166        -0.283543         0.373974
 C         1.268061        -1.247710         1.548058
 C         2.536843        -1.181121         2.441775
 C         3.727234        -0.766732         1.481943
 C         3.601545         0.496429         0.701039
 O         2.248302         0.873835         0.598188
 C         3.600207        -0.853406        -0.049090
 O         2.323437        -1.034465        -0.529073
 H        -0.208249         0.904144         0.672217
 H         0.492316         0.937654        -0.950678
 H        -0.684397        -0.354071        -0.483537
 H         0.315779        -1.225011         2.200414
 H         1.208070        -2.275793         1.198612
 H         2.352257        -0.386195         3.116202
 H         2.813445        -2.150546         2.950816
 H         4.733775        -0.935926         1.745440
 H         4.428110         1.204413         0.591517
 H         4.381202        -1.001592        -0.800840
