19
Iteration:  3261
 C         0.224911         0.204582        -0.341774
 C         1.468290        -0.188538         0.402365
 C         1.335398        -1.100390         1.690118
 C         2.597622        -1.040029         2.462159
 C         3.759167        -0.880217         1.486669
 C         3.655246         0.391202         0.595511
 O         2.314752         0.925228         0.642635
 C         3.492072        -0.958649        -0.060724
 O         2.123864        -1.050517        -0.477600
 H        -0.327774         0.999417         0.074434
 H         0.373670         0.431169        -1.456709
 H        -0.400274        -0.665533        -0.268023
 H         0.416339        -0.690476         2.241956
 H         1.214427        -2.075832         1.236155
 H         2.438746        -0.112792         3.021275
 H         2.816374        -1.906760         3.038050
 H         4.748030        -0.973351         1.961876
 H         4.259317         1.303474         0.478608
 H         4.108237        -1.497733        -0.693139
