19
Iteration:  1952
 C         0.184627         0.291176        -0.180495
 C         1.435041        -0.297473         0.264224
 C         1.304151        -1.161078         1.594153
 C         2.603773        -1.225588         2.419044
 C         3.815298        -0.789139         1.628242
 C         3.538474         0.466872         0.680216
 O         2.189702         0.885154         0.632713
 C         3.619987        -0.834635        -0.010843
 O         2.265727        -1.030382        -0.654871
 H        -0.325250         0.921800         0.592551
 H         0.343368         1.047150        -1.053762
 H        -0.592189        -0.474145        -0.388311
 H         0.599235        -0.566806         2.085779
 H         0.926490        -2.151408         1.253150
 H         2.593351        -0.608464         3.412210
 H         2.806736        -2.245969         2.721758
 H         4.855202        -0.984294         2.044743
 H         4.128649         1.351037         0.590357
 H         4.418254        -1.425021        -0.561801
