19
Iteration:  4369
 C         0.197675         0.111348        -0.339527
 C         1.415751        -0.122739         0.409007
 C         1.253273        -0.732475         1.788015
 C         2.614391        -1.259459         2.341013
 C         3.796182        -0.874655         1.447138
 C         3.650366         0.419998         0.664966
 O         2.331526         1.009093         0.468374
 C         3.521968        -1.024207         0.014488
 O         2.152084        -1.174673        -0.369374
 H        -0.476757         0.827432         0.078551
 H         0.453916         0.393645        -1.400013
 H        -0.245501        -0.869371        -0.354360
 H         0.796180         0.117329         2.347745
 H         0.538034        -1.521283         1.492242
 H         2.704282        -0.884726         3.373965
 H         2.588341        -2.347030         2.366096
 H         4.840281        -1.080955         1.608381
 H         4.446626         1.177817         0.669885
 H         4.277737        -1.432361        -0.581515
