19
Iteration:  1753
 C         0.185093         0.046234        -0.325276
 C         1.450303        -0.254517         0.381285
 C         1.227671        -0.935547         1.710060
 C         2.628885        -1.344444         2.327456
 C         3.786815        -0.835329         1.458579
 C         3.591782         0.507398         0.698109
 O         2.293719         0.967851         0.773964
 C         3.548837        -0.862934        -0.012384
 O         2.242833        -0.915763        -0.580787
 H        -0.638122         0.656150         0.088679
 H         0.365909         0.372770        -1.336738
 H        -0.350906        -0.893054        -0.620161
 H         0.627197        -0.282969         2.213600
 H         0.684127        -1.882133         1.517254
 H         2.628204        -1.012869         3.394662
 H         2.591963        -2.398831         2.425115
 H         4.790367        -1.077513         1.677034
 H         4.360513         1.173974         0.424360
 H         4.383626        -1.383301        -0.637801
