19
Iteration:  2271charge 0 multiplicity 1
 C         0.272579         0.161609        -0.337579
 C         1.462747        -0.186383         0.371941
 C         1.325363        -0.802640         1.805056
 C         2.621039        -1.545025         2.177181
 C         3.810848        -0.813714         1.507061
 C         3.489030         0.508504         0.708201
 O         2.184542         1.006357         0.511958
 C         3.537376        -0.812105        -0.014745
 O         2.252761        -1.182442        -0.330071
 H        -0.436685         0.796616         0.183252
 H         0.392836         0.805229        -1.259346
 H        -0.212626        -0.651836        -0.895993
 H         0.968499        -0.095427         2.641185
 H         0.467201        -1.620855         1.742399
 H         2.744738        -1.263882         3.303971
 H         2.586101        -2.587704         2.017625
 H         4.853132        -0.944778         1.941598
 H         4.204807         1.249142         0.773334
 H         4.263476        -1.049137        -0.875983
