19
Iteration:  2127charge 0 multiplicity 1
 C         0.229603         0.200780        -0.383683
 C         1.387501        -0.258239         0.395430
 C         1.284111        -1.131186         1.702401
 C         2.663206        -1.051139         2.389621
 C         3.823240        -1.020232         1.491303
 C         3.605999         0.413157         0.711357
 O         2.180987         0.878673         0.833241
 C         3.550319        -0.767776        -0.174637
 O         2.232801        -0.982012        -0.602804
 H        -0.278405         1.040294         0.160094
 H         0.647754         0.560418        -1.283198
 H        -0.429607        -0.626507        -0.788894
 H         0.477998        -0.754648         2.361461
 H         0.889672        -2.220482         1.455380
 H         2.678905        -0.080218         3.010556
 H         2.715125        -1.826594         3.079710
 H         4.743449        -1.290712         1.896694
 H         4.229535         1.371869         0.765742
 H         4.232464        -1.202648        -0.839437
