19
Iteration:  4116
 C         0.124628         0.169829        -0.312728
 C         1.434671        -0.165843         0.388805
 C         1.255218        -0.747982         1.756971
 C         2.605523        -1.266870         2.217565
 C         3.744930        -0.773098         1.535210
 C         3.597105         0.437415         0.569101
 O         2.354935         1.000407         0.508681
 C         3.564953        -1.016158         0.022747
 O         2.262774        -1.260242        -0.303718
 H        -0.404671         1.031467         0.226311
 H         0.391838         0.423569        -1.300706
 H        -0.609712        -0.698923        -0.283554
 H         0.898974        -0.021074         2.534109
 H         0.544955        -1.511105         1.649463
 H         2.726059        -1.097876         3.317145
 H         2.419164        -2.316912         1.994501
 H         4.709287        -0.953512         2.019502
 H         4.396237         1.036207         0.254366
 H         4.183037        -1.438968        -0.735364
