19
Iteration:  2043
 C         0.170590         0.193808        -0.300736
 C         1.424661        -0.252780         0.360965
 C         1.267186        -0.859523         1.801671
 C         2.618792        -1.543509         2.174217
 C         3.741185        -0.734174         1.548036
 C         3.482508         0.502748         0.732136
 O         2.198532         0.924579         0.497455
 C         3.660155        -0.818271         0.036236
 O         2.355118        -1.096837        -0.427859
 H        -0.496997         0.839589         0.362003
 H         0.480269         0.917309        -1.054187
 H        -0.399386        -0.736002        -0.733248
 H         1.345884         0.055168         2.447604
 H         0.480246        -1.493985         2.045544
 H         2.622290        -1.746388         3.286683
 H         2.631413        -2.564641         1.661915
 H         4.660608        -0.965275         2.017183
 H         4.173698         1.374903         0.452256
 H         4.320597        -0.842525        -0.744822
