19
Iteration:  2283charge 0 multiplicity 1
 C         0.109256         0.210430        -0.300246
 C         1.438193        -0.210806         0.418089
 C         1.258337        -0.863770         1.735391
 C         2.627449        -1.449456         2.249117
 C         3.738529        -0.806459         1.462143
 C         3.560359         0.518675         0.782628
 O         2.264066         0.932865         0.482359
 C         3.659429        -0.817704        -0.017358
 O         2.269705        -1.178822        -0.437358
 H        -0.520251         0.655513         0.471366
 H         0.541129         0.866966        -1.119977
 H        -0.356306        -0.746929        -0.493752
 H         0.970271         0.017017         2.419437
 H         0.350782        -1.560903         1.595267
 H         2.751405        -1.243888         3.374365
 H         2.714557        -2.483767         2.207064
 H         4.744244        -0.812763         1.961396
 H         4.250718         1.313422         0.804412
 H         4.372109        -1.100201        -0.817034
