19
Iteration:  3149charge 0 multiplicity 1
 C         0.258326         0.095017        -0.451637
 C         1.422421        -0.267070         0.439145
 C         1.253752        -0.736564         1.941877
 C         2.610224        -1.413329         2.175672
 C         3.770850        -0.777285         1.511113
 C         3.513938         0.481697         0.649792
 O         2.285465         1.050487         0.557801
 C         3.565226        -0.925240        -0.124640
 O         2.205395        -1.172890        -0.332388
 H        -0.475419         0.777479         0.037880
 H         0.788681         0.364006        -1.299652
 H        -0.364454        -0.821637        -0.604047
 H         1.105373         0.248960         2.591444
 H         0.474994        -1.454627         2.027823
 H         2.651619        -1.302261         3.238712
 H         2.646826        -2.475718         1.960320
 H         4.756269        -0.907398         1.981414
 H         4.376947         1.152373         0.569470
 H         4.501037        -1.164127        -0.719069
