19
Iteration:  3005charge 0 multiplicity 1
 C         0.113862         0.107748        -0.315510
 C         1.469173        -0.218288         0.410943
 C         1.215359        -1.008252         1.720357
 C         2.618681        -1.195080         2.407302
 C         3.751344        -0.808426         1.503625
 C         3.678307         0.417184         0.587718
 O         2.320163         0.968443         0.577264
 C         3.568560        -0.942919        -0.014729
 O         2.221114        -1.004839        -0.495674
 H        -0.675481         0.456676         0.388129
 H         0.227604         0.994905        -1.038519
 H        -0.279324        -0.794483        -0.818044
 H         0.641416        -0.352631         2.445994
 H         0.645776        -1.854904         1.305946
 H         2.641074        -0.589638         3.318453
 H         2.783653        -2.270279         2.759114
 H         4.805780        -0.877565         1.813980
 H         4.461905         1.158296         0.701174
 H         4.164313        -1.564246        -0.696308
