19
Iteration:  4050
 C         0.130058         0.109146        -0.351586
 C         1.411041        -0.168582         0.339618
 C         1.201278        -0.671704         1.793424
 C         2.646354        -1.224274         2.513212
 C         3.781430        -0.887957         1.465112
 C         3.639589         0.380347         0.660393
 O         2.365916         0.906264         0.586853
 C         3.531251        -1.026939        -0.091558
 O         2.238104        -1.096851        -0.532897
 H        -0.719309         0.524139         0.333538
 H         0.203928         0.693192        -1.244890
 H        -0.357769        -0.894145        -0.622148
 H         0.676706         0.303946         2.104414
 H         0.557079        -1.508492         1.910340
 H         2.815649        -0.538664         3.427758
 H         2.817094        -2.256890         2.810385
 H         4.768521        -1.142833         1.847398
 H         4.392286         1.192972         0.496256
 H         4.151786        -1.503155        -0.788948
