19
Iteration:  3120
 C         0.046490         0.110945        -0.279919
 C         1.493123        -0.249408         0.337180
 C         1.284624        -0.744500         1.785927
 C         2.581243        -1.355159         2.371573
 C         3.793591        -0.912816         1.532620
 C         3.584088         0.509971         0.621213
 O         2.268999         0.969578         0.497213
 C         3.591022        -0.883556         0.002988
 O         2.306962        -1.080572        -0.478715
 H        -0.353081         1.026558         0.179337
 H         0.121852         0.291906        -1.412915
 H        -0.519101        -0.823638        -0.125912
 H         0.853379        -0.002282         2.391942
 H         0.634265        -1.627649         1.669840
 H         2.522567        -1.081255         3.497376
 H         2.456929        -2.448181         2.314246
 H         4.779860        -1.371439         1.843512
 H         4.269765         1.268757         0.455840
 H         4.589553        -1.214283        -0.488328
