19
Iteration:  1361
 C         0.191017         0.226418        -0.331581
 C         1.394614        -0.236356         0.415694
 C         1.270939        -0.877468         1.709502
 C         2.647691        -1.490162         2.187775
 C         3.787840        -0.793517         1.478001
 C         3.518308         0.527352         0.722887
 O         2.183216         0.900475         0.579531
 C         3.645114        -0.730030        -0.061339
 O         2.271562        -1.197521        -0.349796
 H        -0.282759         0.934374         0.318244
 H         0.550451         0.901554        -1.143526
 H        -0.399661        -0.538632        -0.775699
 H         0.889870        -0.254595         2.543215
 H         0.532650        -1.581438         1.510775
 H         2.790831        -1.219437         3.294218
 H         2.722090        -2.626688         2.379976
 H         4.878846        -0.724060         1.892796
 H         4.263294         1.306294         0.749714
 H         4.364648        -1.022083        -0.811134
