19
Iteration:  3371
 C         0.140986         0.086966        -0.341458
 C         1.477433        -0.234169         0.336470
 C         1.275093        -0.660951         1.854770
 C         2.584934        -1.328389         2.279150
 C         3.775547        -0.876656         1.465591
 C         3.568726         0.401292         0.643946
 O         2.263304         0.979192         0.487553
 C         3.578130        -0.896054         0.044557
 O         2.243781        -1.142057        -0.405170
 H        -0.524010         0.485569         0.455012
 H         0.211307         0.767549        -1.201392
 H        -0.181533        -0.879817        -0.726462
 H         1.050961         0.301405         2.486972
 H         0.424014        -1.343168         2.128294
 H         2.797548        -1.200135         3.340554
 H         2.679697        -2.402110         2.140450
 H         4.828079        -1.130255         1.638412
 H         4.409078         1.184670         0.744862
 H         4.436354        -1.139208        -0.640584
