19
Iteration:   575charge 0 multiplicity 1
 C         0.119837         0.135111        -0.308824
 C         1.478970        -0.170564         0.405510
 C         1.292406        -1.167050         1.608894
 C         2.627117        -1.370060         2.250403
 C         3.734965        -0.825644         1.442420
 C         3.579975         0.502000         0.802754
 O         2.192154         1.007761         0.674151
 C         3.588561        -0.708602        -0.035555
 O         2.310921        -1.054684        -0.457294
 H        -0.640611         0.435342         0.442002
 H         0.374957         0.906897        -1.024083
 H        -0.177801        -0.848779        -0.675874
 H         0.693584        -0.605749         2.344237
 H         0.857404        -1.999871         1.026333
 H         2.645285        -0.832840         3.189583
 H         2.809362        -2.393816         2.401814
 H         4.719928        -0.986168         1.749065
 H         4.335634         1.283972         0.963670
 H         4.327398        -1.000820        -0.785965
