19
Iteration:  3575
 C         0.141027         0.048111        -0.324121
 C         1.458478        -0.209982         0.351059
 C         1.244918        -0.818260         1.814295
 C         2.582535        -1.234287         2.348235
 C         3.800303        -0.906470         1.465305
 C         3.643600         0.433544         0.597953
 O         2.304852         1.043627         0.569086
 C         3.543980        -0.931271         0.023373
 O         2.193475        -1.093839        -0.459279
 H        -0.606047         0.676085         0.187998
 H         0.553169         0.712979        -1.155427
 H        -0.348958        -0.821423        -0.786240
 H         0.631875        -0.122816         2.418058
 H         0.616064        -1.739349         1.790895
 H         3.015395        -0.851359         3.276192
 H         2.590428        -2.331721         2.545805
 H         4.821619        -0.922104         1.711667
 H         4.549191         0.965560         0.661525
 H         4.281055        -1.390974        -0.637149
