19
Iteration:  2570charge 0 multiplicity 1
 C         0.162958         0.156652        -0.281423
 C         1.453219        -0.166255         0.418024
 C         1.255729        -1.138211         1.640282
 C         2.628962        -1.078844         2.474695
 C         3.758303        -0.883875         1.476389
 C         3.658634         0.352836         0.694445
 O         2.287793         0.919820         0.646991
 C         3.498025        -0.847766        -0.074158
 O         2.227320        -0.991918        -0.602927
 H        -0.337562         1.005127         0.140710
 H         0.491030         0.263470        -1.256742
 H        -0.623955        -0.619538        -0.282842
 H         0.478977        -0.677319         2.363551
 H         0.960746        -2.187538         1.409217
 H         2.660729        -0.092256         3.137339
 H         2.824912        -1.916290         3.086844
 H         4.652675        -1.456245         1.783483
 H         4.375918         1.168064         0.641741
 H         4.342065        -1.121904        -0.826225
