19
Iteration:  2786
 C         0.191965         0.194692        -0.386868
 C         1.418448        -0.217796         0.387645
 C         1.261332        -1.001024         1.714558
 C         2.658432        -1.145191         2.495847
 C         3.826691        -0.850995         1.442921
 C         3.593457         0.424891         0.703728
 O         2.230808         0.852208         0.689533
 C         3.522989        -0.924590        -0.103911
 O         2.238504        -1.032543        -0.554862
 H        -0.339160         0.894718         0.327305
 H         0.337430         0.763020        -1.370649
 H        -0.423703        -0.710532        -0.753597
 H         0.709154        -0.322342         2.374368
 H         0.761383        -1.936310         1.536520
 H         2.697926        -0.351901         3.276109
 H         2.838179        -2.198761         2.963807
 H         4.857908        -1.026256         1.682265
 H         4.333996         1.291753         0.696604
 H         4.094468        -1.337982        -0.849801
