19
Iteration:  2077
 C         0.100600         0.150801        -0.213067
 C         1.443658        -0.170238         0.326878
 C         1.243075        -1.010628         1.635298
 C         2.592961        -1.415798         2.276312
 C         3.736137        -0.816048         1.521301
 C         3.604141         0.511361         0.737368
 O         2.276234         1.018178         0.512846
 C         3.633645        -0.871816         0.005744
 O         2.316083        -1.051475        -0.415424
 H        -0.527220         0.586565         0.583706
 H         0.107066         0.689388        -1.187423
 H        -0.421072        -0.821784        -0.456057
 H         0.691971        -0.428365         2.421948
 H         0.557584        -1.740496         1.361336
 H         2.621644        -1.094137         3.318624
 H         2.688576        -2.562481         2.276939
 H         4.774671        -0.958953         1.850908
 H         4.401824         1.258544         0.535919
 H         4.439198        -0.977190        -0.659655
