19
Iteration:  4024
 C         0.174535         0.040006        -0.205918
 C         1.464535        -0.133446         0.411158
 C         1.215380        -0.856364         1.696151
 C         2.544146        -1.058864         2.381389
 C         3.732373        -0.982186         1.454777
 C         3.671453         0.411227         0.627329
 O         2.425517         1.006337         0.516022
 C         3.504275        -1.013838        -0.012287
 O         2.198852        -1.060252        -0.481340
 H        -0.478849         0.624179         0.380795
 H         0.343269         0.540063        -1.220004
 H        -0.396605        -0.847491        -0.304144
 H         0.473502        -0.257808         2.201440
 H         0.876706        -1.862284         1.500326
 H         2.614886        -0.236359         3.141255
 H         2.614689        -2.059008         2.877690
 H         4.661491        -1.346934         1.902931
 H         4.531768         1.069035         0.491093
 H         4.150876        -1.689409        -0.677140
