19
Iteration:  1851
 C         0.214693         0.142328        -0.316210
 C         1.410301        -0.224376         0.364111
 C         1.295605        -0.938112         1.733398
 C         2.623135        -1.400333         2.249131
 C         3.767546        -0.874491         1.456960
 C         3.506436         0.485781         0.752286
 O         2.230452         0.966784         0.578481
 C         3.638177        -0.734209        -0.014203
 O         2.263022        -1.059309        -0.414002
 H        -0.473850         0.683881         0.334701
 H         0.261123         0.710014        -1.284133
 H        -0.249466        -0.830604        -0.546217
 H         0.747566        -0.307373         2.385312
 H         0.723818        -1.897319         1.512964
 H         2.689658        -1.178073         3.357508
 H         2.609080        -2.510134         2.238921
 H         4.775265        -0.952996         1.870656
 H         4.336239         1.250559         0.743681
 H         4.272208        -1.017548        -0.864628
