19
Iteration:  3041charge 0 multiplicity 1
 C         0.237823         0.269805        -0.421576
 C         1.351057        -0.226540         0.404933
 C         1.289495        -1.043239         1.678843
 C         2.697487        -0.945804         2.414568
 C         3.815795        -0.887839         1.417637
 C         3.658326         0.380490         0.658443
 O         2.202081         0.781129         0.756881
 C         3.485479        -0.875441        -0.088610
 O         2.185838        -1.122002        -0.496471
 H        -0.454176         0.939241         0.226625
 H         0.700708         0.879198        -1.146738
 H        -0.272066        -0.559227        -1.007346
 H         0.491230        -0.839149         2.411952
 H         1.173763        -2.059898         1.554019
 H         2.708152        -0.018156         3.116735
 H         2.697659        -1.822732         3.073238
 H         4.795880        -1.189220         1.717653
 H         4.291839         1.316089         0.828903
 H         4.286018        -1.313728        -0.627751
