19
Iteration:  4395charge 0 multiplicity 1
 C         0.135570         0.069410        -0.390340
 C         1.411697        -0.236543         0.349789
 C         1.297431        -0.665800         1.965814
 C         2.586989        -1.322771         2.497564
 C         3.745625        -0.883182         1.538880
 C         3.612781         0.321358         0.601526
 O         2.343843         0.979960         0.461690
 C         3.557762        -0.936726        -0.071310
 O         2.227991        -1.031031        -0.516341
 H        -0.539475         0.766141         0.259036
 H         0.291730         0.559604        -1.328138
 H        -0.434669        -0.907469        -0.597675
 H         1.085255         0.296457         2.277066
 H         0.277251        -1.208169         1.891885
 H         2.749805        -0.958994         3.518827
 H         2.514531        -2.493955         2.486320
 H         4.833319        -1.021519         1.762245
 H         4.475920         0.954480         0.427117
 H         4.481512        -1.373394        -0.644620
