19
Iteration:  1211
 C         0.259668         0.328958        -0.364046
 C         1.375048        -0.300178         0.395659
 C         1.271511        -1.175672         1.687159
 C         2.633927        -1.201126         2.264303
 C         3.822580        -0.920710         1.351716
 C         3.555512         0.497544         0.723764
 O         2.141350         0.915498         0.797823
 C         3.578372        -0.762086        -0.063563
 O         2.276092        -1.094379        -0.451855
 H        -0.408735         0.905964         0.280328
 H         0.755462         0.627016        -1.362505
 H        -0.456996        -0.551832        -0.651461
 H         0.450036        -0.682179         2.379207
 H         1.113840        -2.193212         1.258353
 H         2.545124        -0.338603         3.035541
 H         2.854730        -2.051546         2.905970
 H         4.913692        -0.880667         1.831743
 H         4.295534         1.302849         0.826270
 H         4.350541        -0.937471        -0.889100
