19
Iteration:  2214charge 0 multiplicity 1
 C         0.117642         0.066573        -0.308361
 C         1.503824        -0.243421         0.363048
 C         1.242460        -0.778385         1.732716
 C         2.588701        -1.432857         2.304690
 C         3.784825        -0.915246         1.406681
 C         3.559810         0.515888         0.752962
 O         2.253100         1.036533         0.629614
 C         3.587847        -0.843755        -0.035601
 O         2.308536        -1.075334        -0.464155
 H        -0.644309         0.679786         0.177961
 H         0.471278         0.427639        -1.216663
 H        -0.493578        -0.847911        -0.492969
 H         0.846458         0.022595         2.357772
 H         0.484039        -1.660180         1.649607
 H         2.907974        -1.229611         3.349200
 H         2.521678        -2.520040         2.306410
 H         4.723655        -1.046768         1.858375
 H         4.358299         1.322207         0.676177
 H         4.277652        -1.003958        -0.821387
