19
Iteration:  2031charge 0 multiplicity 1
 C         0.174864         0.128537        -0.446129
 C         1.436740        -0.265094         0.412262
 C         1.311103        -0.795143         1.871785
 C         2.591381        -1.585449         2.108369
 C         3.814725        -0.772238         1.561359
 C         3.539959         0.525676         0.702438
 O         2.188009         0.948635         0.613222
 C         3.592783        -0.785143         0.025724
 O         2.278846        -1.072767        -0.442575
 H        -0.489726         0.637878         0.351408
 H         0.447345         0.702566        -1.331645
 H        -0.512444        -0.754580        -0.870645
 H         1.099633         0.086213         2.510231
 H         0.375739        -1.310540         1.964758
 H         2.856152        -1.548939         3.229654
 H         2.683265        -2.633423         1.747741
 H         4.797526        -0.815149         1.933435
 H         4.378012         1.284625         0.588422
 H         4.411205        -1.131694        -0.595658
