19
Iteration:  2639
 C         0.184803         0.219303        -0.253625
 C         1.488307        -0.281401         0.381515
 C         1.178260        -0.951792         1.723070
 C         2.644290        -1.217913         2.423694
 C         3.727256        -0.851255         1.438269
 C         3.570371         0.403282         0.680432
 O         2.239310         0.939196         0.536748
 C         3.597526        -0.879338        -0.073527
 O         2.288471        -1.074954        -0.484683
 H        -0.454221         0.491036         0.586445
 H         0.299138         1.010740        -1.047438
 H        -0.403705        -0.508628        -0.771451
 H         0.547178        -0.367357         2.362265
 H         0.714645        -1.912605         1.455202
 H         2.811085        -0.657955         3.369915
 H         2.850118        -2.323259         2.567115
 H         4.760608        -0.996799         1.868984
 H         4.380445         1.156236         0.741500
 H         4.417271        -1.067670        -0.723729
