19
Iteration:  2023charge 0 multiplicity 1
 C         0.190016         0.070700        -0.468053
 C         1.404006        -0.247493         0.380736
 C         1.300401        -0.803553         1.858667
 C         2.640288        -1.531532         2.166505
 C         3.792863        -0.812270         1.505006
 C         3.583812         0.507721         0.715730
 O         2.188992         1.014039         0.671824
 C         3.621012        -0.769453        -0.027292
 O         2.230488        -1.077918        -0.418418
 H        -0.566370         0.681983         0.035234
 H         0.474735         0.652763        -1.332266
 H        -0.306616        -0.888343        -0.735517
 H         1.216598         0.071279         2.598865
 H         0.452712        -1.459394         1.822154
 H         2.736666        -1.694866         3.227283
 H         2.426888        -2.581036         1.734633
 H         4.829909        -0.850377         1.860696
 H         4.355075         1.343549         0.809311
 H         4.334932        -1.273799        -0.560999
