19
Iteration:  3298charge 0 multiplicity 1
 C         0.205953         0.353335        -0.353020
 C         1.431393        -0.274469         0.362885
 C         1.286315        -1.014286         1.666015
 C         2.642960        -1.062280         2.464394
 C         3.767886        -0.851501         1.505066
 C         3.522063         0.457418         0.549706
 O         2.249014         0.815420         0.678737
 C         3.555236        -0.909828        -0.079496
 O         2.250472        -1.193463        -0.490773
 H        -0.023092         1.296188         0.268866
 H         0.409895         0.592003        -1.365902
 H        -0.606111        -0.429324        -0.205234
 H         0.611097        -0.521509         2.234094
 H         0.851378        -2.048849         1.796552
 H         2.802183        -0.211527         3.192800
 H         2.879618        -1.888934         3.195277
 H         4.701401        -1.244274         1.886039
 H         4.191107         1.387768         0.547366
 H         4.304065        -1.330331        -0.864027
