19
Iteration:  4260
 C         0.112144         0.105997        -0.290544
 C         1.452179        -0.202287         0.354929
 C         1.243814        -0.842084         1.656318
 C         2.574160        -1.049634         2.472166
 C         3.760326        -0.938368         1.491711
 C         3.658827         0.290710         0.554290
 O         2.395103         0.971029         0.621355
 C         3.533672        -1.035859        -0.033557
 O         2.202989        -1.025941        -0.474888
 H        -0.417457         0.695510         0.422567
 H         0.419211         0.590608        -1.306072
 H        -0.305124        -0.877327        -0.400475
 H         0.666134        -0.206433         2.322773
 H         0.525582        -1.658349         1.484972
 H         2.614402        -0.086650         3.067949
 H         2.651670        -1.965063         3.175794
 H         4.747230        -1.076441         1.927993
 H         4.406167         1.046551         0.301816
 H         4.162304        -1.582428        -0.722394
