19
Iteration:    39charge 0 multiplicity 1
 C         0.142508         0.033332        -0.201760
 C         1.497708        -0.232590         0.389301
 C         1.318529        -1.076627         1.556906
 C         2.596909        -1.182610         2.327080
 C         3.725345        -0.942197         1.447970
 C         3.589620         0.445319         0.708005
 O         2.250228         0.930870         0.794688
 C         3.567207        -0.849294        -0.070275
 O         2.265350        -0.825412        -0.626930
 H        -0.596512         0.429280         0.565411
 H         0.271460         0.871444        -0.960864
 H        -0.263549        -1.019079        -0.477408
 H         0.531383        -0.622735         2.183240
 H         0.881293        -2.031631         1.204838
 H         2.614362        -0.398129         3.128767
 H         2.666604        -2.080359         2.986558
 H         4.779434        -1.177199         1.831779
 H         4.340018         1.243446         0.798647
 H         4.331568        -1.294163        -0.751006
