19
Iteration:  2174
 C         0.173020         0.222424        -0.155370
 C         1.438642        -0.271471         0.369597
 C         1.292394        -1.098684         1.612655
 C         2.576412        -1.291074         2.401803
 C         3.752121        -0.718092         1.549441
 C         3.590572         0.494780         0.640541
 O         2.284275         0.964576         0.585251
 C         3.602807        -0.931856         0.052192
 O         2.244408        -1.038652        -0.610021
 H        -0.241364         0.923544         0.623278
 H         0.373876         0.856193        -1.119140
 H        -0.672919        -0.467809        -0.540829
 H         0.300368        -0.820118         2.085905
 H         0.996929        -2.060597         1.148367
 H         2.420806        -0.737380         3.400455
 H         2.649158        -2.367385         2.624166
 H         4.853686        -0.944099         1.714172
 H         4.360595         1.206593         0.483131
 H         4.448195        -1.328888        -0.590762
