19
Iteration:  1457
 C         0.254487         0.292946        -0.295612
 C         1.451545        -0.291554         0.371778
 C         1.250153        -1.223831         1.603871
 C         2.639351        -1.181383         2.357882
 C         3.823648        -0.735668         1.533989
 C         3.600769         0.462806         0.603330
 O         2.187551         0.882128         0.792873
 C         3.543025        -0.826393        -0.044827
 O         2.184958        -1.076259        -0.571012
 H        -0.113272         1.074033         0.367891
 H         0.472743         1.052085        -1.107458
 H        -0.490838        -0.401321        -0.591356
 H         0.445113        -0.874407         2.265240
 H         0.942404        -2.339950         1.324870
 H         2.504901        -0.474689         3.148191
 H         3.014066        -2.036485         2.942070
 H         4.915509        -0.892194         1.967291
 H         4.299668         1.188463         0.217393
 H         4.345437        -1.212946        -0.563431
