19
Iteration:  2693charge 0 multiplicity 1
 C         0.177363         0.063999        -0.375294
 C         1.458528        -0.188536         0.495997
 C         1.239443        -0.729695         1.879218
 C         2.578494        -1.446307         2.198969
 C         3.774930        -0.902538         1.391525
 C         3.581874         0.511065         0.691610
 O         2.252313         0.988633         0.536383
 C         3.599466        -0.794905        -0.027705
 O         2.267599        -1.133610        -0.400506
 H        -0.570817         0.775996        -0.099241
 H         0.512134         0.377696        -1.380022
 H        -0.203466        -0.903634        -0.516272
 H         1.115912         0.057376         2.604736
 H         0.434483        -1.505480         1.970957
 H         2.730575        -1.381554         3.291595
 H         2.448302        -2.511381         1.964550
 H         4.736271        -0.988423         1.959688
 H         4.231871         1.370181         0.790732
 H         4.382416        -1.180980        -0.727675
