19
Iteration:  1339charge 0 multiplicity 1
 C         0.204002         0.235131        -0.437402
 C         1.393111        -0.266011         0.380689
 C         1.274070        -0.942198         1.905917
 C         2.656851        -1.511285         2.184289
 C         3.820438        -0.745392         1.510846
 C         3.509796         0.538021         0.711272
 O         2.159575         0.997392         0.584273
 C         3.564621        -0.821793        -0.028756
 O         2.293255        -1.168422        -0.390347
 H        -0.298271         0.929706         0.187655
 H         0.646384         0.983389        -1.130794
 H        -0.271720        -0.580944        -0.926780
 H         0.871799        -0.082832         2.491778
 H         0.480815        -1.586718         1.879520
 H         3.040856        -1.611996         3.232762
 H         2.667816        -2.638931         1.870444
 H         4.972675        -0.837498         1.731365
 H         4.270432         1.314488         0.706789
 H         4.349288        -1.048242        -0.777850
