19
Iteration:  1754
 C         0.186376         0.035171        -0.328746
 C         1.444984        -0.256059         0.376761
 C         1.220820        -0.929686         1.703964
 C         2.627176        -1.352259         2.328548
 C         3.786954        -0.839802         1.452920
 C         3.594493         0.503830         0.703274
 O         2.289601         0.977525         0.772909
 C         3.550926        -0.865889        -0.018638
 O         2.246884        -0.910263        -0.570361
 H        -0.614895         0.662061         0.108384
 H         0.353758         0.384580        -1.366856
 H        -0.344454        -0.901426        -0.610277
 H         0.641349        -0.235322         2.274901
 H         0.686002        -1.872516         1.527856
 H         2.656497        -1.030777         3.401226
 H         2.604587        -2.402630         2.434333
 H         4.812803        -1.076924         1.653240
 H         4.364857         1.179205         0.411799
 H         4.374661        -1.370365        -0.602047
