19
Iteration:  4550charge 0 multiplicity 1
 C         0.195109         0.275059        -0.298110
 C         1.450487        -0.160138         0.393639
 C         1.296677        -1.000012         1.724625
 C         2.621839        -1.080462         2.505559
 C         3.693480        -0.837963         1.497618
 C         3.672159         0.333352         0.550535
 O         2.298086         0.933326         0.471547
 C         3.523209        -1.125287         0.055271
 O         2.189766        -1.018108        -0.471089
 H        -0.233479         1.112306         0.238624
 H         0.360109         0.672615        -1.371041
 H        -0.568816        -0.488337        -0.390355
 H         0.473969        -0.743339         2.329299
 H         1.063360        -2.023081         1.284171
 H         2.699989        -0.378010         3.398169
 H         2.676119        -2.095973         2.932645
 H         4.733229        -0.940541         1.812248
 H         4.456659         1.059430         0.257612
 H         4.154678        -1.727483        -0.565890
