19
Iteration:  4534charge 0 multiplicity 1
 C         0.150230         0.148135        -0.287288
 C         1.493734        -0.162361         0.368223
 C         1.289525        -0.927733         1.681701
 C         2.571453        -1.114516         2.547591
 C         3.727714        -0.916442         1.504703
 C         3.634017         0.378287         0.534670
 O         2.447780         1.043878         0.537607
 C         3.415854        -0.986005         0.023164
 O         2.172166        -1.097858        -0.510465
 H        -0.354604         1.046999         0.143451
 H         0.381161         0.294820        -1.302958
 H        -0.455092        -0.769584        -0.136762
 H         0.456118        -0.387616         2.252285
 H         0.991149        -1.962901         1.338236
 H         2.650441        -0.397695         3.330204
 H         2.686578        -2.129789         2.992009
 H         4.653639        -1.415696         1.841652
 H         4.503850         0.961418         0.294648
 H         4.236695        -1.457833        -0.579115
