19
Iteration:  1348charge 0 multiplicity 1
 C         0.244562         0.312792        -0.402495
 C         1.446567        -0.256188         0.373895
 C         1.301003        -0.947891         1.827791
 C         2.681838        -1.462933         2.212518
 C         3.754971        -0.800210         1.417380
 C         3.433685         0.494474         0.749462
 O         2.142103         0.983200         0.559786
 C         3.622106        -0.788130        -0.045412
 O         2.297916        -1.207840        -0.311813
 H        -0.473690         0.793473         0.283868
 H         0.599273         0.955244        -1.242831
 H        -0.352672        -0.511565        -0.739242
 H         0.998978        -0.118446         2.428126
 H         0.629041        -1.803429         1.984275
 H         2.794026        -1.356425         3.313933
 H         2.722307        -2.505949         1.686289
 H         4.741784        -0.906548         1.975790
 H         4.128447         1.339140         0.719359
 H         4.409002        -0.973900        -0.885860
