19
Iteration:  3620charge 0 multiplicity 1
 C         0.153106         0.138106        -0.383099
 C         1.392469        -0.288388         0.411673
 C         1.342438        -0.694855         1.840521
 C         2.607251        -1.386080         2.238017
 C         3.748232        -0.823350         1.543864
 C         3.526549         0.476170         0.641436
 O         2.247727         1.051428         0.480269
 C         3.607641        -0.911076        -0.035421
 O         2.289550        -1.206486        -0.340629
 H        -0.218844         0.935899         0.318272
 H         0.490156         0.591868        -1.276494
 H        -0.574793        -0.691247        -0.430305
 H         1.027779         0.273155         2.346475
 H         0.502276        -1.312032         2.047981
 H         2.729808        -1.593825         3.315583
 H         2.605656        -2.396069         1.766064
 H         4.703966        -1.150030         1.824736
 H         4.354916         1.061711         0.520620
 H         4.307329        -1.419163        -0.665464
