19
Iteration:  2559charge 0 multiplicity 1
 C         0.141461         0.188773        -0.284564
 C         1.442421        -0.250836         0.350598
 C         1.271703        -1.039512         1.728287
 C         2.617159        -1.084713         2.433098
 C         3.720707        -1.002884         1.386849
 C         3.588563         0.464417         0.749224
 O         2.284320         0.912351         0.635593
 C         3.555003        -0.882964        -0.054536
 O         2.286308        -0.998825        -0.575821
 H        -0.232253         1.092233         0.173550
 H         0.153327         0.412426        -1.296052
 H        -0.492487        -0.696488        -0.056758
 H         0.344840        -0.745026         2.355785
 H         1.046349        -2.075319         1.356610
 H         2.821801        -0.244327         3.241514
 H         2.640994        -1.985497         2.994457
 H         4.808354        -1.029872         1.638291
 H         4.362796         1.213386         0.717874
 H         4.429764        -1.320875        -0.709247
