19
Iteration:   179
 C         0.187539         0.040547        -0.264214
 C         1.442032        -0.241242         0.387527
 C         1.196881        -0.888862         1.858880
 C         2.517542        -1.510090         2.057107
 C         3.794930        -0.753397         1.476636
 C         3.530786         0.519754         0.732019
 O         2.217578         0.963797         0.607892
 C         3.709173        -0.721565         0.012271
 O         2.361355        -1.023519        -0.481935
 H        -0.596346         0.602725         0.314786
 H         0.192658         0.814348        -1.112672
 H        -0.418665        -0.926712        -0.501500
 H         0.921471        -0.066902         2.602426
 H         0.411177        -1.666350         1.917410
 H         2.688060        -1.767813         3.085825
 H         2.502045        -2.552916         1.537334
 H         4.752488        -1.038400         2.063471
 H         4.272548         1.250724         0.624046
 H         4.527340        -1.082635        -0.585006
