19
Iteration:  3273charge 0 multiplicity 1
 C         0.214710         0.235711        -0.333634
 C         1.376520        -0.302470         0.457356
 C         1.237229        -1.136082         1.674371
 C         2.635936        -0.972596         2.406339
 C         3.781891        -0.761277         1.482417
 C         3.600159         0.363810         0.602860
 O         2.332831         0.904217         0.664693
 C         3.509322        -0.980562        -0.070664
 O         2.187574        -1.046292        -0.496055
 H        -0.046379         1.210452         0.031078
 H         0.800722         0.377632        -1.289927
 H        -0.634829        -0.408145        -0.478851
 H         0.473313        -0.821943         2.390393
 H         0.933062        -2.182494         1.501262
 H         2.673858        -0.125877         3.122900
 H         2.791304        -1.776908         3.085867
 H         4.745279        -1.195345         1.737820
 H         4.521770         1.027192         0.471408
 H         4.199153        -1.247841        -0.812619
