19
Iteration:  3724charge 0 multiplicity 1
 C         0.229190         0.292012        -0.273217
 C         1.451963        -0.238486         0.412755
 C         1.269612        -1.023530         1.699200
 C         2.590205        -0.939948         2.433117
 C         3.786856        -0.916809         1.468993
 C         3.628249         0.365832         0.568949
 O         2.228857         0.868393         0.727038
 C         3.521639        -0.989193        -0.098012
 O         2.224734        -1.142889        -0.544137
 H        -0.343408         0.856794         0.420227
 H         0.661194         0.904556        -1.112981
 H        -0.381627        -0.444462        -0.781073
 H         0.610894        -0.423021         2.218501
 H         0.863000        -1.976246         1.443115
 H         2.363449        -0.046847         3.027895
 H         2.932522        -1.778031         3.069720
 H         4.781230        -1.221254         1.718746
 H         4.225717         1.199787         0.272070
 H         4.351727        -1.344037        -0.656757
