19
Iteration:  4004charge 0 multiplicity 1
 C         0.126153         0.272392        -0.332829
 C         1.472301        -0.106846         0.341717
 C         1.302556        -1.019375         1.729519
 C         2.600544        -1.075975         2.550508
 C         3.747808        -0.835831         1.505335
 C         3.641544         0.315185         0.569305
 O         2.344594         0.922776         0.526194
 C         3.544204        -1.016261        -0.024278
 O         2.166335        -1.120860        -0.482491
 H        -0.332486         1.046787         0.278250
 H         0.175311         0.669896        -1.425042
 H        -0.571300        -0.596903        -0.305968
 H         0.500919        -0.562537         2.389134
 H         0.986376        -1.980925         1.430853
 H         2.571389        -0.255893         3.368747
 H         2.691340        -2.041791         3.093984
 H         4.782345        -1.032815         1.776388
 H         4.598393         0.891402         0.513370
 H         4.259941        -1.425214        -0.809914
