19
Iteration:  4744
 C         0.206458         0.125170        -0.331879
 C         1.458696        -0.216984         0.368623
 C         1.242504        -0.714331         1.811527
 C         2.568124        -1.214234         2.287662
 C         3.779831        -0.904690         1.494672
 C         3.607869         0.390287         0.616900
 O         2.332438         0.971064         0.574076
 C         3.530883        -0.984644        -0.026249
 O         2.205656        -1.114926        -0.414696
 H        -0.382416         0.905442         0.184165
 H         0.286267         0.578062        -1.368930
 H        -0.457009        -0.763416        -0.322533
 H         0.935690         0.063819         2.440439
 H         0.477431        -1.584464         1.579215
 H         2.889767        -0.850655         3.297315
 H         2.571610        -2.434094         2.468296
 H         4.701426        -1.095643         2.060080
 H         4.479750         1.025289         0.455829
 H         4.214013        -1.364880        -0.913927
