19
Iteration:  2450
 C         0.166854         0.018105        -0.331691
 C         1.445069        -0.237376         0.376271
 C         1.247463        -0.738421         1.851388
 C         2.571935        -1.478075         2.219143
 C         3.741537        -0.806439         1.483818
 C         3.591057         0.446345         0.654557
 O         2.292350         1.009083         0.619660
 C         3.644718        -0.885881         0.001237
 O         2.236356        -1.003730        -0.490431
 H        -0.658877         0.273282         0.318083
 H         0.374202         0.601947        -1.160123
 H        -0.138137        -1.011294        -0.692490
 H         1.240537         0.168268         2.474108
 H         0.321006        -1.282731         1.928101
 H         2.655003        -1.186430         3.344757
 H         2.517034        -2.516671         2.140074
 H         4.675036        -0.966192         2.062527
 H         4.296748         1.204640         0.398614
 H         4.412987        -1.239715        -0.853897
