19
Iteration:  1006
 C         0.172528         0.283276        -0.213153
 C         1.415932        -0.240781         0.410683
 C         1.220279        -1.247040         1.593846
 C         2.662997        -1.273986         2.387879
 C         3.758212        -0.812620         1.470919
 C         3.552848         0.505978         0.739638
 O         2.217457         0.908740         0.656415
 C         3.620868        -0.724394        -0.055524
 O         2.324290        -1.052387        -0.591278
 H        -0.325623         0.980395         0.436601
 H         0.349696         0.746767        -1.197807
 H        -0.521805        -0.505250        -0.531905
 H         0.298405        -1.090973         2.201229
 H         1.022279        -2.330014         1.102372
 H         2.671884        -0.540964         3.241944
 H         2.638854        -2.247893         2.976206
 H         4.830230        -1.045166         1.668881
 H         4.173001         1.353323         0.825395
 H         4.410836        -0.961651        -0.693902
