19
Iteration:  3709
 C         0.256953         0.208765        -0.326279
 C         1.447694        -0.320212         0.330993
 C         1.208047        -0.932588         1.692918
 C         2.641643        -1.022576         2.475777
 C         3.730534        -0.858846         1.388657
 C         3.604687         0.431399         0.611905
 O         2.345028         0.895771         0.729490
 C         3.516937        -0.908579        -0.059170
 O         2.174917        -1.152444        -0.519401
 H        -0.387145         0.738106         0.411482
 H         0.349533         0.881581        -1.151828
 H        -0.433417        -0.606213        -0.610501
 H         0.384539        -0.350996         2.303882
 H         0.901663        -1.966775         1.633762
 H         3.012655        -0.259187         3.192138
 H         2.546450        -1.989055         3.000965
 H         4.738726        -1.259404         1.741232
 H         4.540194         1.139806         0.586818
 H         4.206885        -1.449380        -0.764382
