19
Iteration:  3098
 C         0.068664         0.126013        -0.205636
 C         1.448996        -0.161858         0.297836
 C         1.259116        -0.980485         1.665563
 C         2.619503        -1.271966         2.431989
 C         3.722076        -0.833337         1.510999
 C         3.667474         0.426332         0.730136
 O         2.318157         1.002662         0.432889
 C         3.577617        -0.961972        -0.005913
 O         2.237094        -1.051094        -0.496598
 H        -0.216148         1.062453         0.315696
 H         0.151356         0.355156        -1.302403
 H        -0.613087        -0.723094         0.042945
 H         0.673273        -0.348067         2.274684
 H         0.765056        -1.936250         1.435344
 H         2.600929        -0.602703         3.383962
 H         2.749447        -2.317345         2.736517
 H         4.717336        -0.662597         1.992524
 H         4.486052         1.087720         0.734632
 H         4.498417        -1.307978        -0.620288
