19
Iteration:  3840charge 0 multiplicity 1
 C         0.244234         0.171966        -0.452853
 C         1.434120        -0.196102         0.501347
 C         1.275199        -0.788831         1.908165
 C         2.601113        -1.431259         2.283462
 C         3.750340        -0.760593         1.461702
 C         3.605004         0.460827         0.522595
 O         2.298741         0.978756         0.481302
 C         3.540485        -0.956192        -0.001439
 O         2.146176        -1.116081        -0.290734
 H        -0.269208         1.036708        -0.126205
 H         0.904855         0.294932        -1.346370
 H        -0.331823        -0.697665        -0.684077
 H         1.044021         0.071887         2.631533
 H         0.506515        -1.525115         1.812768
 H         2.772913        -1.246751         3.339555
 H         2.752787        -2.434377         2.044548
 H         4.727269        -1.005761         1.931159
 H         4.430567         1.152220         0.552223
 H         3.988815        -1.499657        -0.790771
