19
Iteration:  1596charge 0 multiplicity 1
 C         0.169073         0.214270        -0.353496
 C         1.414311        -0.292303         0.370381
 C         1.272029        -0.915567         1.814849
 C         2.667146        -1.471248         2.143178
 C         3.780544        -0.653716         1.584872
 C         3.524442         0.468737         0.648535
 O         2.216216         0.953510         0.616000
 C         3.626327        -0.782346        -0.032645
 O         2.276691        -1.160268        -0.407183
 H        -0.215137         0.988133         0.351780
 H         0.604803         0.887037        -1.202178
 H        -0.563255        -0.504842        -0.718048
 H         0.877244        -0.182522         2.457074
 H         0.658783        -1.818039         1.820999
 H         2.482163        -1.687842         3.230057
 H         2.609938        -2.551869         1.786355
 H         4.814383        -0.760384         2.039320
 H         4.167912         1.327148         0.524793
 H         4.287900        -1.258695        -0.651785
