19
Iteration:  3601charge 0 multiplicity 1
 C         0.204321         0.082674        -0.388568
 C         1.476345        -0.126525         0.386337
 C         1.277503        -0.771802         1.857875
 C         2.568416        -1.474296         2.306564
 C         3.797444        -0.788233         1.499962
 C         3.584240         0.532543         0.660405
 O         2.333144         0.955362         0.468070
 C         3.541598        -0.905218        -0.007504
 O         2.128254        -1.163433        -0.378023
 H        -0.532692         0.770397         0.077883
 H         0.475807         0.471147        -1.333746
 H        -0.280387        -0.891587        -0.547919
 H         1.088704         0.087358         2.575527
 H         0.427566        -1.364127         1.874483
 H         2.906884        -1.165670         3.315484
 H         2.713134        -2.572910         2.306567
 H         4.849318        -0.764201         1.905432
 H         4.436166         1.265733         0.536835
 H         4.188103        -1.154525        -0.847939
