19
Iteration:  3579charge 0 multiplicity 1
 C         0.169251         0.057688        -0.338237
 C         1.438312        -0.191616         0.390437
 C         1.240175        -0.810107         1.824888
 C         2.608887        -1.258663         2.350582
 C         3.773703        -0.891983         1.455108
 C         3.643576         0.379210         0.594008
 O         2.281201         1.048443         0.533646
 C         3.542965        -0.919936        -0.001487
 O         2.222738        -1.066388        -0.418450
 H        -0.675339         0.641794         0.087385
 H         0.477174         0.561306        -1.200059
 H        -0.325204        -0.815398        -0.773332
 H         0.693065        -0.090512         2.509694
 H         0.721924        -1.709295         1.754734
 H         2.934860        -0.978658         3.400557
 H         2.516951        -2.376973         2.390767
 H         4.854639        -1.025052         1.707697
 H         4.494632         1.065509         0.634780
 H         4.297837        -1.409932        -0.574879
