19
Iteration:  1326
 C         0.200776         0.137605        -0.435679
 C         1.408189        -0.245081         0.458587
 C         1.238647        -0.847929         1.815999
 C         2.695644        -1.563883         2.237646
 C         3.791284        -0.736448         1.508301
 C         3.563730         0.527211         0.656352
 O         2.226701         0.940527         0.637023
 C         3.607415        -0.765147         0.018738
 O         2.206774        -1.066409        -0.459230
 H        -0.602697         0.676471         0.078979
 H         0.655204         0.683655        -1.274400
 H        -0.404056        -0.670435        -0.840556
 H         1.104351        -0.173601         2.600692
 H         0.519656        -1.655137         1.870441
 H         2.602039        -1.544712         3.336529
 H         2.740289        -2.601308         1.666608
 H         4.800165        -0.931393         1.943870
 H         4.262885         1.355564         0.460122
 H         4.372870        -1.251927        -0.715622
