19
Iteration:   793
 C         0.110160         0.246434        -0.168510
 C         1.463086        -0.246618         0.359184
 C         1.320002        -1.198660         1.532179
 C         2.604757        -1.338657         2.378231
 C         3.726471        -0.831202         1.480664
 C         3.554202         0.559924         0.791993
 O         2.176485         0.910942         0.590352
 C         3.643141        -0.790511         0.043425
 O         2.333586        -0.967662        -0.585508
 H        -0.319175         0.764491         0.679137
 H         0.279175         0.732993        -1.151461
 H        -0.611788        -0.510968        -0.585820
 H         0.462143        -0.977851         2.231032
 H         1.153543        -2.159595         1.025424
 H         2.699152        -0.668482         3.317438
 H         2.739437        -2.443634         2.720146
 H         4.828305        -0.958120         1.739567
 H         4.241457         1.332396         0.658856
 H         4.361961        -1.063319        -0.635861
