19
Iteration:  2193charge 0 multiplicity 1
 C         0.118935         0.191680        -0.235230
 C         1.435243        -0.172819         0.330922
 C         1.282911        -1.016493         1.674717
 C         2.620002        -1.345028         2.379453
 C         3.727955        -0.835725         1.530150
 C         3.580330         0.419191         0.746571
 O         2.272816         0.950088         0.464934
 C         3.630766        -0.822807        -0.018420
 O         2.302066        -1.007296        -0.528263
 H        -0.497500         0.652557         0.545836
 H        -0.018248         0.675120        -1.163299
 H        -0.574666        -0.700987        -0.238785
 H         0.801150        -0.451690         2.497278
 H         0.562129        -1.933533         1.431757
 H         2.650317        -0.944535         3.446703
 H         2.798127        -2.371218         2.487199
 H         4.636522        -1.042059         2.028962
 H         4.385205         1.214998         0.800936
 H         4.368384        -1.249015        -0.648697
