19
Iteration:  2520charge 0 multiplicity 1
 C         0.168525         0.219117        -0.300723
 C         1.472159        -0.221283         0.413524
 C         1.207669        -0.927860         1.769926
 C         2.615999        -1.357459         2.324590
 C         3.768848        -0.729391         1.487663
 C         3.602493         0.503974         0.658759
 O         2.291788         0.911588         0.546972
 C         3.593885        -0.859857         0.045990
 O         2.238218        -1.116702        -0.516629
 H        -0.424100         0.858768         0.382195
 H         0.308625         0.509331        -1.447783
 H        -0.529969        -0.607694        -0.255345
 H         0.582702        -0.369073         2.413753
 H         0.765654        -1.900135         1.607073
 H         2.696968        -1.194431         3.340401
 H         2.743920        -2.492816         2.147235
 H         4.714178        -1.094832         1.858033
 H         4.337718         1.314233         0.356176
 H         4.229640        -1.319307        -0.600215
