19
Iteration:  4977charge 0 multiplicity 1
 C         0.208649         0.134720        -0.396219
 C         1.478375        -0.178641         0.498587
 C         1.195829        -0.820150         1.840180
 C         2.558631        -1.224041         2.321628
 C         3.791763        -0.785843         1.448125
 C         3.684021         0.377326         0.493541
 O         2.328860         0.935075         0.583406
 C         3.527927        -1.000351        -0.050117
 O         2.195909        -1.074721        -0.355568
 H        -0.530532         0.683843         0.168670
 H         0.348452         0.838580        -1.286612
 H        -0.233748        -0.823483        -0.613182
 H         0.570233        -0.228161         2.557597
 H         0.501497        -1.719541         1.641513
 H         2.604900        -0.805174         3.395671
 H         2.636375        -2.379621         2.440080
 H         4.733234        -1.157293         1.993000
 H         4.364864         1.111098         0.053007
 H         4.327096        -1.375162        -0.775571
