19
Iteration:  1199
 C         0.202047         0.174097        -0.391198
 C         1.444065        -0.270918         0.405019
 C         1.279081        -1.128818         1.632573
 C         2.663264        -1.208125         2.371917
 C         3.750015        -0.860153         1.408611
 C         3.538271         0.476937         0.736988
 O         2.213793         0.886094         0.845997
 C         3.555399        -0.740342        -0.113461
 O         2.276738        -1.043807        -0.552520
 H        -0.193627         1.010197         0.205373
 H         0.499058         0.840212        -1.273170
 H        -0.576100        -0.587514        -0.684989
 H         0.579780        -0.566532         2.396616
 H         0.721098        -2.050750         1.508013
 H         2.773234        -0.379688         3.161592
 H         2.769908        -2.145322         2.848070
 H         4.790924        -1.261320         1.731277
 H         4.249273         1.304029         0.705998
 H         4.407825        -1.012407        -0.812053
