19
Iteration:  3366
 C         0.149180         0.081784        -0.334459
 C         1.498494        -0.229202         0.316673
 C         1.264536        -0.677252         1.873201
 C         2.617251        -1.301692         2.266187
 C         3.777046        -0.865926         1.508696
 C         3.561800         0.417243         0.667767
 O         2.292157         1.011673         0.482990
 C         3.570168        -0.943493         0.029734
 O         2.195518        -1.123122        -0.437829
 H        -0.545777         0.308014         0.469169
 H         0.301213         0.709106        -1.231065
 H        -0.141997        -0.976786        -0.544933
 H         1.029057         0.160521         2.472395
 H         0.444946        -1.393735         1.875274
 H         2.846722        -1.233038         3.349813
 H         2.613995        -2.441999         2.214509
 H         4.806705        -1.139238         1.748532
 H         4.282666         1.157681         0.692737
 H         4.353713        -1.196130        -0.622996
