19
Iteration:   241charge 0 multiplicity 1
 C         0.181829         0.089556        -0.389728
 C         1.473647        -0.168476         0.465697
 C         1.280825        -1.045228         1.711634
 C         2.682116        -1.401557         2.366980
 C         3.764283        -0.851152         1.480138
 C         3.542347         0.444441         0.742507
 O         2.242845         0.964681         0.709080
 C         3.575629        -0.725612        -0.091678
 O         2.200405        -0.931189        -0.584388
 H        -0.649100         0.517027         0.180606
 H         0.466978         0.672483        -1.198027
 H        -0.117774        -0.892500        -0.677141
 H         0.454877        -0.710177         2.366227
 H         0.828366        -1.994404         1.349258
 H         2.666528        -1.126845         3.466551
 H         2.767715        -2.481305         2.460558
 H         4.878711        -0.915440         1.659159
 H         4.267943         1.291859         0.855701
 H         4.390972        -1.044818        -0.798446
