19
Iteration:   302
 C         0.193424         0.279397        -0.156571
 C         1.440428        -0.295440         0.375602
 C         1.393113        -1.368478         1.505314
 C         2.575487        -1.178882         2.476712
 C         3.714265        -0.788727         1.473845
 C         3.536106         0.489107         0.751235
 O         2.219977         0.938349         0.724594
 C         3.554773        -0.808682        -0.106525
 O         2.277007        -0.979411        -0.646010
 H        -0.171936         1.162494         0.454339
 H         0.323210         0.679874        -1.211887
 H        -0.667028        -0.379940        -0.298820
 H         0.467390        -1.196640         2.008817
 H         1.472041        -2.300835         0.969956
 H         2.446770        -0.369876         3.115478
 H         2.805923        -2.111922         2.956468
 H         4.687130        -1.002882         1.680392
 H         4.349938         1.278591         0.930213
 H         4.497998        -1.096610        -0.614512
