19
Iteration:  1416charge 0 multiplicity 1
 C         0.105336         0.070177        -0.269716
 C         1.427497        -0.177769         0.345111
 C         1.289580        -1.096493         1.629490
 C         2.613255        -1.184300         2.468118
 C         3.768973        -1.000063         1.478753
 C         3.619585         0.436262         0.797799
 O         2.262375         1.002156         0.656121
 C         3.599317        -0.832062        -0.111385
 O         2.253195        -0.916991        -0.607508
 H        -0.472341         0.736724         0.339536
 H         0.262507         0.347538        -1.315463
 H        -0.350617        -0.912458        -0.111640
 H         0.626064        -0.526242         2.317909
 H         0.738031        -1.918969         1.349968
 H         2.647718        -0.316446         3.215152
 H         2.651332        -2.292490         2.818878
 H         4.878899        -1.254132         1.688227
 H         4.423267         1.158546         0.746035
 H         4.321531        -1.022395        -0.803566
