19
Iteration:  4415
 C         0.160340         0.119905        -0.296866
 C         1.507512        -0.209588         0.379232
 C         1.276191        -0.642898         1.845128
 C         2.571963        -1.236401         2.311760
 C         3.715207        -0.877680         1.515759
 C         3.634856         0.455978         0.652756
 O         2.288274         0.901757         0.486447
 C         3.541955        -1.008446        -0.018339
 O         2.237348        -1.154697        -0.476717
 H        -0.461835         0.731560         0.440104
 H         0.400422         0.740666        -1.129099
 H        -0.299006        -0.861223        -0.598278
 H         1.140628         0.284800         2.279836
 H         0.409271        -1.422487         1.913879
 H         2.904858        -0.977928         3.293804
 H         2.383990        -2.366841         2.317974
 H         4.703159        -1.142357         1.946003
 H         4.271518         1.334864         0.523062
 H         4.298735        -1.543599        -0.735858
