19
Iteration:  3661
 C         0.138869         0.077283        -0.300121
 C         1.527495        -0.180774         0.350335
 C         1.330548        -0.802836         1.807663
 C         2.588379        -1.375739         2.353948
 C         3.715716        -0.780311         1.527010
 C         3.610421         0.440231         0.674800
 O         2.328182         1.058462         0.441676
 C         3.526449        -0.929627        -0.043213
 O         2.205068        -1.155789        -0.396469
 H        -0.240528         1.020223         0.175500
 H         0.422484         0.465196        -1.339181
 H        -0.632009        -0.759255        -0.364755
 H         0.868796        -0.126202         2.538572
 H         0.494476        -1.654238         1.619894
 H         2.725853        -1.217695         3.429650
 H         2.513562        -2.450788         2.190472
 H         4.649234        -1.054637         1.929855
 H         4.273794         1.216679         0.506871
 H         4.199280        -1.313032        -0.772067
