19
Iteration:  3134charge 0 multiplicity 1
 C         0.203440         0.051747        -0.333115
 C         1.441286        -0.226202         0.383348
 C         1.257488        -0.730920         1.798048
 C         2.575386        -1.368984         2.302211
 C         3.733192        -0.795618         1.463835
 C         3.613647         0.444392         0.659551
 O         2.264118         0.931922         0.565053
 C         3.617214        -0.847461        -0.015282
 O         2.245667        -1.132930        -0.439412
 H        -0.251558         0.922663         0.142556
 H         0.330726         0.351319        -1.411642
 H        -0.503240        -0.771034        -0.320896
 H         1.099113         0.197509         2.359807
 H         0.282183        -1.290391         2.028101
 H         2.877123        -1.264975         3.349251
 H         2.549315        -2.480139         2.118092
 H         4.732694        -0.827940         1.875357
 H         4.365014         1.271314         0.631224
 H         4.121033        -1.274446        -0.801266
