19
Iteration:  2021charge 0 multiplicity 1
 C         0.195198         0.058129        -0.465069
 C         1.401429        -0.231179         0.379039
 C         1.291307        -0.807174         1.843937
 C         2.648211        -1.518470         2.183180
 C         3.784190        -0.816751         1.481640
 C         3.578156         0.502618         0.726130
 O         2.199211         1.028673         0.679994
 C         3.626819        -0.770504        -0.034832
 O         2.227973        -1.078995        -0.410623
 H        -0.601209         0.740400        -0.011454
 H         0.502020         0.635569        -1.330832
 H        -0.263790        -0.996486        -0.734581
 H         1.222343         0.045663         2.577147
 H         0.514596        -1.526791         1.863000
 H         2.703088        -1.743424         3.294528
 H         2.424359        -2.537084         1.730785
 H         4.774332        -0.922090         1.843822
 H         4.325867         1.358166         0.832783
 H         4.315130        -1.297747        -0.653403
