19
Iteration:  4149
 C         0.159147         0.103277        -0.303242
 C         1.496673        -0.218624         0.363208
 C         1.332676        -0.688523         1.929992
 C         2.591455        -1.232424         2.486770
 C         3.656297        -0.956602         1.476395
 C         3.579296         0.375188         0.675178
 O         2.277031         0.932718         0.417000
 C         3.535314        -0.962807        -0.040482
 O         2.297193        -1.046594        -0.592539
 H        -0.372059         1.070171        -0.055762
 H         0.343052         0.161206        -1.363894
 H        -0.644565        -0.685474        -0.231076
 H         1.023520         0.195268         2.530904
 H         0.577739        -1.395206         1.890462
 H         2.997955        -0.986149         3.504468
 H         2.546639        -2.328270         2.642208
 H         4.701109        -1.104761         1.806561
 H         4.128579         1.268714         0.689167
 H         4.359511        -1.464066        -0.584752
