19
Iteration:  1437charge 0 multiplicity 1
 C         0.125026         0.227137        -0.272156
 C         1.448701        -0.297134         0.397031
 C         1.290651        -1.108752         1.645334
 C         2.608651        -1.116000         2.377223
 C         3.745331        -0.899514         1.439822
 C         3.555834         0.514249         0.730005
 O         2.250104         0.864489         0.734673
 C         3.582535        -0.874997        -0.124427
 O         2.309599        -0.998984        -0.551524
 H        -0.347602         1.028487         0.271968
 H         0.415605         0.724414        -1.233073
 H        -0.524410        -0.613980        -0.404933
 H         0.363544        -0.841144         2.177881
 H         1.103792        -2.150632         1.301635
 H         2.660403        -0.256996         3.097353
 H         2.748176        -2.140029         2.962326
 H         4.856057        -1.157497         1.623210
 H         4.275727         1.304738         0.868401
 H         4.270698        -1.142545        -0.823404
