19
Iteration:  4480
 C         0.269082         0.238187        -0.375055
 C         1.463288        -0.280837         0.368849
 C         1.279789        -0.813304         1.789934
 C         2.613612        -1.215279         2.492340
 C         3.814715        -0.815495         1.455068
 C         3.603357         0.416637         0.610439
 O         2.293894         0.967661         0.557440
 C         3.480489        -0.972868        -0.047310
 O         2.132062        -1.212859        -0.483519
 H        -0.167072         1.082508         0.265472
 H         0.510510         0.655216        -1.305563
 H        -0.543455        -0.536510        -0.508186
 H         0.778332         0.069179         2.310089
 H         0.510671        -1.701299         1.757388
 H         2.666455        -0.730683         3.420525
 H         2.864968        -2.294281         2.672400
 H         4.681355        -1.027865         2.086694
 H         4.416856         1.117057         0.474261
 H         4.229243        -1.456477        -0.806582
