19
Iteration:  2206charge 0 multiplicity 1
 C         0.044438         0.092750        -0.285660
 C         1.484489        -0.209523         0.355461
 C         1.266623        -0.875877         1.748784
 C         2.593067        -1.456567         2.311709
 C         3.756778        -0.911968         1.470284
 C         3.577237         0.500580         0.752257
 O         2.266885         1.052494         0.551819
 C         3.648779        -0.826731        -0.017553
 O         2.290984        -1.074312        -0.503872
 H        -0.368751         0.866811         0.393816
 H         0.280102         0.685378        -1.259504
 H        -0.428863        -0.920682        -0.449926
 H         0.719742        -0.075194         2.341237
 H         0.558951        -1.770578         1.602699
 H         2.741549        -0.873052         3.306023
 H         2.540718        -2.486115         2.522064
 H         4.850234        -1.005929         1.724119
 H         4.296358         1.267536         0.842553
 H         4.486132        -1.145104        -0.733043
