19
Iteration:  4992
 C         0.216732         0.156536        -0.263560
 C         1.432503        -0.203288         0.376387
 C         1.189799        -0.812827         1.747165
 C         2.620587        -1.220402         2.313499
 C         3.805809        -0.840688         1.465362
 C         3.615125         0.440041         0.600895
 O         2.337686         0.992313         0.514920
 C         3.547661        -0.968563         0.019597
 O         2.150667        -1.192048        -0.375827
 H        -0.490787         0.713612         0.368061
 H         0.537926         0.748464        -1.107748
 H        -0.216973        -0.662090        -0.849619
 H         0.715667         0.022264         2.390792
 H         0.574637        -1.641905         1.706586
 H         2.826653        -0.864179         3.429270
 H         2.648151        -2.315491         2.292428
 H         4.837045        -1.018788         1.758803
 H         4.482041         1.081272         0.502528
 H         4.188369        -1.533715        -0.742997
