19
Iteration:  2906charge 0 multiplicity 1
 C         0.192267         0.060968        -0.440009
 C         1.401964        -0.160996         0.416530
 C         1.189564        -0.818046         1.825267
 C         2.644035        -1.422231         2.240809
 C         3.745411        -0.874926         1.412621
 C         3.607312         0.544796         0.621199
 O         2.287042         0.982046         0.627995
 C         3.586936        -0.837845        -0.050110
 O         2.262362        -1.108194        -0.290297
 H        -0.189813         1.069177        -0.219008
 H         0.347823         0.169478        -1.611873
 H        -0.512473        -0.778298        -0.279383
 H         0.916118        -0.000704         2.527503
 H         0.504993        -1.643700         1.796048
 H         2.954968        -1.210076         3.251395
 H         2.444740        -2.566756         2.270097
 H         4.749551        -1.184060         1.834377
 H         4.225800         1.419859         0.545930
 H         4.415567        -1.209440        -0.742606
