19
Iteration:  4788
 C         0.202503         0.250695        -0.284273
 C         1.474356        -0.162328         0.393149
 C         1.258518        -0.831382         1.800992
 C         2.597597        -1.261073         2.441796
 C         3.731072        -0.863089         1.497810
 C         3.559773         0.361328         0.627061
 O         2.296312         0.981979         0.377466
 C         3.581984        -1.028216        -0.019369
 O         2.201584        -1.134868        -0.438716
 H        -0.356635         0.778326         0.519729
 H         0.515186         1.064455        -0.963560
 H        -0.199410        -0.668559        -0.729393
 H         0.677925        -0.296214         2.483718
 H         0.662538        -1.821632         1.627332
 H         2.784106        -0.747309         3.405227
 H         2.512536        -2.448781         2.652824
 H         4.782193        -0.810081         1.808484
 H         4.358366         1.060296         0.493784
 H         4.481509        -1.313292        -0.727176
