19
Iteration:   727charge 0 multiplicity 1
 C         0.134050         0.060904        -0.420432
 C         1.421778        -0.194650         0.415712
 C         1.291038        -1.153995         1.639786
 C         2.642749        -1.278854         2.354519
 C         3.781864        -0.883275         1.388793
 C         3.592701         0.478831         0.806029
 O         2.252719         0.957556         0.866609
 C         3.550647        -0.768659        -0.094064
 O         2.246308        -0.900868        -0.558682
 H        -0.615125         0.643568         0.090172
 H         0.567033         0.613714        -1.287923
 H        -0.155901        -0.926764        -0.849444
 H         0.307373        -0.971829         2.165258
 H         0.971528        -2.176132         1.247715
 H         2.697934        -0.507154         3.170741
 H         2.796930        -2.248608         2.904840
 H         4.809778        -0.984986         1.746517
 H         4.317563         1.295097         0.649995
 H         4.395746        -0.816037        -0.755884
