19
Iteration:  3501
 C         0.202520         0.261337        -0.287385
 C         1.403874        -0.212108         0.440984
 C         1.307086        -1.066117         1.637604
 C         2.556611        -0.990681         2.507117
 C         3.774862        -0.850374         1.522339
 C         3.671706         0.412748         0.539216
 O         2.319763         0.882432         0.604385
 C         3.520292        -0.993633        -0.055163
 O         2.152651        -1.099212        -0.510095
 H        -0.349948         1.113682         0.131792
 H         0.440372         0.544788        -1.310734
 H        -0.559921        -0.511421        -0.382264
 H         0.395702        -1.148082         2.305565
 H         1.357933        -1.994739         1.222902
 H         2.746683        -0.172820         3.230654
 H         2.723614        -1.955678         3.013270
 H         4.766800        -1.070867         1.878651
 H         4.325923         1.267462         0.427622
 H         4.404497        -1.395797        -0.598785
