19
Iteration:    26
 C        -0.014050         0.033865        -0.224580
 C         1.423863        -0.162073         0.321807
 C         1.258888        -1.047080         1.603881
 C         2.576654        -1.213413         2.340309
 C         3.814491        -0.975958         1.387486
 C         3.680057         0.448290         0.770897
 O         2.289794         0.927248         0.801949
 C         3.656061        -0.758562        -0.066854
 O         2.292447        -0.953820        -0.587687
 H        -0.641089         0.553987         0.645516
 H        -0.061661         0.653766        -1.169921
 H        -0.540724        -0.869299        -0.776592
 H         0.622517        -0.469452         2.309600
 H         0.809470        -1.999534         1.383317
 H         2.632055        -0.404087         3.044627
 H         2.581692        -2.276999         2.760988
 H         4.779929        -1.107609         1.770863
 H         4.409971         1.287788         0.934665
 H         4.404554        -0.897860        -0.841941
