19
Iteration:  4861
 C         0.140916         0.241452        -0.376685
 C         1.439701        -0.279157         0.388924
 C         1.238691        -0.880466         1.854203
 C         2.681664        -1.134008         2.474866
 C         3.687493        -0.930931         1.442276
 C         3.611439         0.386823         0.691574
 O         2.367250         0.958892         0.499672
 C         3.494839        -0.893896        -0.044888
 O         2.212090        -1.167229        -0.514497
 H        -0.245755         1.101384         0.156699
 H         0.509077         0.602516        -1.393787
 H        -0.585256        -0.571000        -0.363189
 H         0.540071        -0.086547         2.347245
 H         0.694724        -1.803524         1.746382
 H         2.863223        -0.524412         3.380355
 H         2.872716        -2.098169         2.755963
 H         4.740740        -1.198108         1.735426
 H         4.542346         0.925499         0.618886
 H         4.317048        -1.193195        -0.829428
