19
Iteration:  4061
 C         0.175063         0.176058        -0.416979
 C         1.451688        -0.182457         0.372591
 C         1.287766        -0.702751         1.824815
 C         2.694855        -1.226843         2.458701
 C         3.810561        -0.871956         1.456098
 C         3.557275         0.411590         0.673724
 O         2.263742         0.930138         0.546359
 C         3.528107        -1.032158        -0.013850
 O         2.179820        -1.182027        -0.516029
 H        -0.544976         0.761180         0.251888
 H         0.455564         0.858654        -1.197954
 H        -0.173173        -0.784680        -0.898301
 H         0.968505         0.166630         2.499502
 H         0.479879        -1.392516         1.888971
 H         2.847699        -0.802356         3.503943
 H         2.502411        -2.294587         2.628041
 H         4.879313        -0.975366         1.658520
 H         4.323983         1.192245         0.618029
 H         4.155798        -1.618263        -0.619110
