19
Iteration:  2362charge 0 multiplicity 1
 C         0.221938         0.315985        -0.388431
 C         1.420023        -0.274039         0.402808
 C         1.265240        -1.188521         1.664123
 C         2.613720        -1.062025         2.389408
 C         3.842812        -0.890260         1.465334
 C         3.558204         0.415473         0.649736
 O         2.229389         0.867934         0.800056
 C         3.529922        -0.865856        -0.092180
 O         2.238832        -1.034700        -0.493030
 H        -0.236197         1.210037         0.037178
 H         0.592695         0.448712        -1.421355
 H        -0.507091        -0.453607        -0.583152
 H         0.570634        -0.716043         2.388618
 H         0.971901        -2.202183         1.423582
 H         2.507038        -0.092264         2.910019
 H         2.869959        -1.794187         3.063505
 H         4.822978        -1.217045         1.688980
 H         4.352851         1.215780         0.422224
 H         4.195784        -1.200876        -0.838706
