19
Iteration:   398charge 0 multiplicity 1
 C         0.114837         0.002024        -0.407034
 C         1.444853        -0.149777         0.375954
 C         1.340220        -0.947744         1.834164
 C         2.670055        -1.597391         2.147364
 C         3.700230        -0.754515         1.538162
 C         3.532673         0.534021         0.775120
 O         2.238374         1.067713         0.674126
 C         3.607330        -0.822399         0.023169
 O         2.279698        -0.948264        -0.506663
 H        -0.729855         0.279248         0.270512
 H         0.050796         0.681132        -1.333114
 H        -0.105867        -1.006271        -0.832668
 H         1.106836        -0.155870         2.614871
 H         0.484899        -1.693799         1.845932
 H         2.746402        -2.016896         3.262603
 H         2.800023        -2.543083         1.484004
 H         4.772600        -0.937746         1.677286
 H         4.320286         1.373247         0.702396
 H         4.399559        -1.102030        -0.722379
