19
Iteration:  2911
 C         0.170371         0.040059        -0.485546
 C         1.429858        -0.147853         0.417650
 C         1.251057        -0.776348         1.809810
 C         2.621836        -1.484247         2.193634
 C         3.758190        -0.824067         1.370822
 C         3.570145         0.523485         0.622205
 O         2.307172         0.979574         0.655337
 C         3.568582        -0.840161        -0.031043
 O         2.253318        -1.115692        -0.228893
 H        -0.311528         1.012902        -0.309205
 H         0.392991         0.118469        -1.494788
 H        -0.613165        -0.696545        -0.334736
 H         0.946005         0.005063         2.495250
 H         0.444208        -1.576801         1.834543
 H         2.907861        -1.212501         3.274989
 H         2.546554        -2.524805         2.201502
 H         4.676333        -1.024475         1.865480
 H         4.347387         1.323951         0.667835
 H         4.314268        -1.191374        -0.702596
