19
Iteration:  2440charge 0 multiplicity 1
 C         0.151259        -0.016287        -0.306331
 C         1.517906        -0.115522         0.386195
 C         1.278923        -0.795068         1.764882
 C         2.543435        -1.438384         2.304809
 C         3.727843        -0.853382         1.505645
 C         3.641865         0.467128         0.639794
 O         2.280079         1.021243         0.576397
 C         3.546990        -0.836914         0.007799
 O         2.244941        -1.061063        -0.496259
 H        -0.547901         0.446037         0.390648
 H         0.108846         0.680871        -1.073309
 H        -0.227369        -1.020736        -0.618450
 H         0.996300        -0.043069         2.464231
 H         0.469285        -1.467978         1.757450
 H         2.641979        -1.313141         3.392449
 H         2.651801        -2.494237         2.157045
 H         4.781067        -1.103906         1.809175
 H         4.454378         1.150547         0.595187
 H         4.430562        -1.184172        -0.708241
