19
Iteration:  1776charge 0 multiplicity 1
 C         0.108460        -0.001216        -0.387655
 C         1.463507        -0.147896         0.388019
 C         1.290465        -0.862176         1.814959
 C         2.616800        -1.463623         2.232194
 C         3.754559        -0.940989         1.445611
 C         3.577714         0.476223         0.787700
 O         2.249607         1.028487         0.627320
 C         3.647002        -0.749108        -0.073506
 O         2.276025        -1.008704        -0.456982
 H        -0.702763         0.608811         0.071959
 H         0.168328         0.353855        -1.458976
 H        -0.400159        -0.957933        -0.584998
 H         0.990789        -0.039166         2.366904
 H         0.440557        -1.545387         1.802417
 H         2.720709        -1.151589         3.302407
 H         2.577618        -2.518409         2.314511
 H         4.695833        -1.115637         1.957008
 H         4.360728         1.176249         1.053791
 H         4.298385        -0.910807        -0.952982
