19
Iteration:  1225
 C         0.249385         0.317737        -0.363489
 C         1.411887        -0.235368         0.459829
 C         1.197313        -1.247808         1.588899
 C         2.680576        -1.200388         2.349841
 C         3.876101        -0.806981         1.418741
 C         3.498887         0.490764         0.721417
 O         2.180526         0.894841         0.727879
 C         3.619261        -0.794687        -0.114140
 O         2.232237        -1.098198        -0.394407
 H        -0.235629         1.163637         0.152767
 H         0.655991         0.965672        -1.107213
 H        -0.486547        -0.410750        -0.777820
 H         0.467257        -1.159305         2.337592
 H         0.911069        -2.253555         1.146210
 H         2.756694        -0.364436         3.076061
 H         2.746931        -2.286596         2.738570
 H         4.848219        -1.027218         1.790472
 H         4.127439         1.367810         0.557937
 H         4.257678        -1.080158        -0.889587
