19
Iteration:  1392charge 0 multiplicity 1
 C         0.120705         0.012965        -0.299643
 C         1.436366        -0.203923         0.347915
 C         1.296543        -0.955444         1.712986
 C         2.611351        -1.329849         2.356457
 C         3.668526        -0.815463         1.499044
 C         3.640632         0.463663         0.675867
 O         2.300840         0.955488         0.693175
 C         3.584196        -0.868728        -0.005117
 O         2.245044        -0.899448        -0.588155
 H        -0.343397         0.731100         0.391878
 H         0.289107         0.520336        -1.285380
 H        -0.389320        -0.921001        -0.266069
 H         0.624681        -0.477938         2.395174
 H         0.707692        -1.814697         1.302269
 H         2.777370        -0.885294         3.370629
 H         2.730629        -2.470663         2.243716
 H         4.767518        -0.992052         1.847863
 H         4.471890         1.140127         0.514544
 H         4.386246        -1.410212        -0.561241
