19
Iteration:    20
 C        -0.081553         0.088033        -0.280723
 C         1.414890        -0.213105         0.323067
 C         1.208952        -1.019862         1.627659
 C         2.602730        -1.245151         2.334559
 C         3.851905        -0.943764         1.387391
 C         3.654136         0.444804         0.825732
 O         2.303574         0.947865         0.784973
 C         3.655099        -0.720821        -0.124381
 O         2.322933        -0.993792        -0.563852
 H        -0.623174         0.473294         0.522776
 H        -0.058394         0.803458        -1.111312
 H        -0.384607        -0.927854        -0.448598
 H         0.492761        -0.502340         2.274847
 H         0.748600        -2.016593         1.395163
 H         2.742998        -0.566301         3.229939
 H         2.678338        -2.216630         2.784832
 H         4.868294        -1.325251         1.799134
 H         4.430130         1.188389         0.824523
 H         4.469253        -0.907561        -0.846698
