19
Iteration:   862
 C         0.217096         0.098220        -0.429334
 C         1.420542        -0.261638         0.405136
 C         1.320371        -0.885008         1.839983
 C         2.653400        -1.634032         2.244786
 C         3.788537        -0.840560         1.392025
 C         3.464492         0.527249         0.858170
 O         2.162047         0.981628         0.651041
 C         3.625822        -0.665059        -0.057664
 O         2.277251        -1.038898        -0.487987
 H        -0.492929         0.748047         0.091439
 H         0.580414         0.459564        -1.356741
 H        -0.369204        -0.680951        -0.838529
 H         1.083380        -0.010690         2.409414
 H         0.448330        -1.686916         1.823333
 H         2.838034        -1.410798         3.299789
 H         2.792341        -2.667431         2.110612
 H         4.696392        -0.776806         1.976589
 H         4.150754         1.445406         0.841912
 H         4.414556        -0.629502        -0.915645
