19
Iteration:  2507charge 0 multiplicity 1
 C         0.177612         0.153495        -0.331123
 C         1.428337        -0.219938         0.383689
 C         1.261772        -0.925843         1.799463
 C         2.633602        -1.424883         2.277121
 C         3.727146        -0.763694         1.518790
 C         3.593612         0.486461         0.603312
 O         2.242187         1.022407         0.528127
 C         3.616264        -0.903976        -0.040502
 O         2.231674        -1.088111        -0.347004
 H        -0.228877         0.970965         0.245968
 H         0.519990         0.711798        -1.239801
 H        -0.439654        -0.684364        -0.677654
 H         0.772330        -0.303325         2.491603
 H         0.579937        -1.685982         1.514583
 H         2.785596        -1.345043         3.364381
 H         2.668092        -2.500721         2.017242
 H         4.789771        -0.826485         1.904803
 H         4.341324         1.285284         0.713176
 H         4.423563        -1.442497        -0.674285
