19
Iteration:   677
 C         0.150606         0.142965        -0.238747
 C         1.431548        -0.291112         0.336451
 C         1.266078        -1.057261         1.686338
 C         2.612106        -1.505613         2.186774
 C         3.723281        -0.662039         1.582206
 C         3.548239         0.543636         0.707146
 O         2.186509         0.975220         0.680543
 C         3.671548        -0.746821        -0.020907
 O         2.336640        -1.035864        -0.551539
 H        -0.168846         0.734373         0.617300
 H         0.312655         0.653275        -1.203411
 H        -0.459785        -0.741635        -0.448498
 H         0.796703        -0.331329         2.308479
 H         0.548268        -1.878322         1.664468
 H         2.627885        -1.656736         3.270686
 H         2.797344        -2.483238         1.714536
 H         4.776181        -0.797222         2.068908
 H         4.105969         1.424570         0.729470
 H         4.509640        -1.088154        -0.574353
