19
Iteration:  1391charge 0 multiplicity 1
 C         0.124496         0.020096        -0.303663
 C         1.427149        -0.207970         0.348786
 C         1.293692        -0.956491         1.717216
 C         2.614207        -1.324550         2.350544
 C         3.668240        -0.820653         1.504128
 C         3.639610         0.471561         0.675497
 O         2.297380         0.957596         0.690323
 C         3.590369        -0.867548        -0.005266
 O         2.246640        -0.907242        -0.581726
 H        -0.330460         0.765058         0.397802
 H         0.265390         0.547032        -1.282490
 H        -0.360435        -0.937037        -0.269091
 H         0.638967        -0.486045         2.412836
 H         0.661297        -1.847695         1.306102
 H         2.781769        -0.953312         3.381882
 H         2.738317        -2.438471         2.222291
 H         4.744989        -0.987177         1.830399
 H         4.491478         1.129845         0.489572
 H         4.427326        -1.415999        -0.589539
