19
Iteration:    30
 C         0.047750         0.000869        -0.187418
 C         1.448382        -0.153487         0.340416
 C         1.303497        -1.057463         1.584366
 C         2.571502        -1.202594         2.327285
 C         3.755883        -0.984967         1.403003
 C         3.677896         0.454541         0.728503
 O         2.272250         0.915943         0.808602
 C         3.636814        -0.797120        -0.034138
 O         2.270624        -0.906413        -0.605993
 H        -0.573987         0.479261         0.530218
 H        -0.004487         0.640793        -1.145862
 H        -0.521270        -0.732673        -0.777512
 H         0.691999        -0.489034         2.294758
 H         0.809949        -2.035023         1.317211
 H         2.570769        -0.288544         3.009662
 H         2.546688        -2.185853         2.762886
 H         4.876556        -1.020794         1.817780
 H         4.314409         1.290273         0.947472
 H         4.365712        -0.982755        -0.856934
