19
Iteration:  1438
 C         0.132458         0.241605        -0.273574
 C         1.443177        -0.297855         0.396528
 C         1.290853        -1.125014         1.636247
 C         2.608408        -1.112548         2.385852
 C         3.753318        -0.888672         1.438500
 C         3.556202         0.517665         0.724153
 O         2.246820         0.860868         0.740040
 C         3.585212        -0.881831        -0.123050
 O         2.306695        -1.003791        -0.551084
 H        -0.359241         1.007239         0.303335
 H         0.452924         0.696684        -1.221938
 H        -0.529294        -0.615277        -0.401657
 H         0.371287        -0.824755         2.187634
 H         1.075430        -2.109977         1.302289
 H         2.642511        -0.231041         3.104780
 H         2.739779        -2.155953         2.932408
 H         4.832135        -1.145406         1.612174
 H         4.272727         1.326412         0.868295
 H         4.268271        -1.158948        -0.840691
