19
Iteration:  3094
 C         0.095559         0.155380        -0.205835
 C         1.511845        -0.187379         0.326148
 C         1.271548        -0.993334         1.645027
 C         2.611012        -1.239518         2.449226
 C         3.706736        -0.792001         1.486432
 C         3.649657         0.423555         0.724508
 O         2.320946         0.959768         0.454063
 C         3.567633        -0.966892        -0.040216
 O         2.214586        -1.048773        -0.486205
 H        -0.188775         1.132138         0.246222
 H         0.065157         0.353852        -1.243139
 H        -0.494359        -0.775082        -0.049466
 H         0.530863        -0.443782         2.366206
 H         0.850930        -1.930753         1.370243
 H         2.499368        -0.652545         3.342198
 H         2.718446        -2.274436         2.777982
 H         4.681287        -0.725972         1.951836
 H         4.458302         1.242833         0.760877
 H         4.402155        -1.355167        -0.557544
