19
Iteration:  3105
 C         0.045620         0.106558        -0.233346
 C         1.408499        -0.167287         0.314490
 C         1.268817        -0.949136         1.696330
 C         2.608765        -1.293462         2.403811
 C         3.760460        -0.882397         1.564160
 C         3.610008         0.414815         0.693199
 O         2.318867         1.058311         0.419669
 C         3.621919        -0.922226         0.064435
 O         2.291603        -1.067840        -0.530345
 H        -0.349025         0.963925         0.370563
 H         0.105919         0.296202        -1.260836
 H        -0.755035        -0.604706         0.066993
 H         0.662799        -0.187710         2.338496
 H         0.634324        -1.785691         1.522161
 H         2.805277        -0.730802         3.300117
 H         2.717133        -2.347985         2.652912
 H         4.777296        -0.999137         1.948262
 H         4.533450         1.075402         0.604114
 H         4.272985        -1.262417        -0.734339
