19
Iteration:  3915charge 0 multiplicity 1
 C         0.127386         0.059291        -0.286459
 C         1.463944        -0.129669         0.405771
 C         1.322858        -0.751096         1.784612
 C         2.571360        -1.256101         2.526123
 C         3.694510        -0.892950         1.505300
 C         3.633284         0.317875         0.620120
 O         2.374029         1.006139         0.484507
 C         3.526618        -1.006277        -0.046145
 O         2.186098        -1.021289        -0.582036
 H        -0.563154         0.644622         0.311441
 H         0.505823         0.660099        -1.179693
 H        -0.209806        -0.955476        -0.549346
 H         0.691423        -0.035139         2.292368
 H         0.742350        -1.664346         1.728430
 H         2.655052        -0.771677         3.536395
 H         2.662568        -2.371516         2.701764
 H         4.760050        -1.005077         1.799480
 H         4.449054         1.017389         0.516290
 H         4.321761        -1.420184        -0.631806
