19
Iteration:  4572charge 0 multiplicity 1
 C         0.206312         0.370942        -0.272761
 C         1.416885        -0.316370         0.367517
 C         1.221046        -0.994010         1.705600
 C         2.624554        -1.012961         2.463494
 C         3.776883        -0.846763         1.553225
 C         3.668180         0.382286         0.612141
 O         2.352208         0.888263         0.543536
 C         3.529982        -0.936498        -0.060229
 O         2.153859        -1.259661        -0.502166
 H        -0.219008         1.108207         0.411128
 H         0.443200         0.924930        -1.258481
 H        -0.592684        -0.323407        -0.552039
 H         0.567617        -0.380020         2.283923
 H         0.632955        -1.925350         1.475906
 H         2.488065        -0.192445         3.224316
 H         2.753828        -1.899819         3.086138
 H         4.799347        -1.082260         1.798413
 H         4.473798         1.119070         0.361582
 H         4.288218        -1.236359        -0.838088
