19
Iteration:  4459
 C         0.203889         0.291667        -0.417772
 C         1.414728        -0.137228         0.478609
 C         1.245474        -0.857681         1.817579
 C         2.628741        -1.286014         2.359806
 C         3.758977        -0.780418         1.487585
 C         3.623842         0.394927         0.533545
 O         2.288762         0.933209         0.404240
 C         3.553284        -0.991235         0.066855
 O         2.170984        -1.144344        -0.311523
 H        -0.429345         1.044259         0.162922
 H         0.635044         0.750142        -1.277863
 H        -0.333220        -0.671428        -0.625669
 H         0.767421        -0.426694         2.652253
 H         0.844911        -1.902053         1.531577
 H         2.687495        -1.003888         3.376811
 H         2.788080        -2.419849         2.332147
 H         4.806871        -1.069663         1.812146
 H         4.450178         1.023029         0.262824
 H         4.330831        -1.604980        -0.539645
