19
Iteration:  2387
 C         0.229155         0.318713        -0.254602
 C         1.481810        -0.326210         0.334076
 C         1.219254        -1.054793         1.662814
 C         2.591498        -1.156028         2.464366
 C         3.777131        -0.783601         1.456718
 C         3.556768         0.508576         0.642943
 O         2.232287         0.871435         0.723715
 C         3.588652        -0.880859        -0.047106
 O         2.221476        -1.135770        -0.562731
 H        -0.109272         1.185517         0.318902
 H         0.520467         0.688344        -1.212125
 H        -0.559758        -0.398327        -0.604803
 H         0.412279        -0.673744         2.206962
 H         1.001602        -2.063780         1.430732
 H         2.674545        -0.658587         3.325277
 H         2.922204        -2.227032         2.606657
 H         4.870235        -1.018488         1.636143
 H         4.297803         1.221712         0.410705
 H         4.430415        -1.394331        -0.716189
