19
Iteration:  1681
 C         0.159079         0.235114        -0.210801
 C         1.456678        -0.299304         0.301776
 C         1.256435        -1.194033         1.556801
 C         2.549534        -1.114525         2.440927
 C         3.764480        -0.798286         1.510583
 C         3.625002         0.507764         0.664599
 O         2.297099         0.877181         0.777477
 C         3.576970        -0.948314        -0.076569
 O         2.237991        -0.971321        -0.606894
 H        -0.412767         0.798822         0.504382
 H         0.273527         0.682392        -1.228902
 H        -0.516753        -0.484459        -0.577906
 H         0.278724        -0.878700         2.172758
 H         1.162127        -2.232296         1.286139
 H         2.677966        -0.346296         3.218998
 H         2.944512        -2.025073         3.021349
 H         4.818195        -0.908510         1.849226
 H         4.313053         1.351764         0.610234
 H         4.299364        -1.169263        -0.749702
