19
Iteration:  3083
 C         0.208693         0.213374        -0.231660
 C         1.499341        -0.223186         0.408973
 C         1.295913        -1.030998         1.662887
 C         2.553854        -1.144833         2.443349
 C         3.709742        -0.772167         1.517421
 C         3.584127         0.461639         0.619517
 O         2.322594         0.901830         0.541419
 C         3.561291        -0.926912        -0.037529
 O         2.233313        -1.090188        -0.520405
 H        -0.316076         1.005381         0.350452
 H         0.272992         0.387899        -1.274203
 H        -0.538513        -0.604967        -0.046626
 H         0.354359        -0.698713         2.232543
 H         1.019825        -1.952336         1.204118
 H         2.611505        -0.536448         3.336254
 H         2.709380        -2.185911         2.738631
 H         4.665419        -1.211649         1.691158
 H         4.307458         1.350148         0.604889
 H         4.125868        -1.515678        -0.687790
