19
Iteration:  2131charge 0 multiplicity 1
 C         0.202927         0.224050        -0.365671
 C         1.371754        -0.270360         0.424358
 C         1.264537        -1.123975         1.673789
 C         2.623303        -1.039471         2.386674
 C         3.856832        -0.999020         1.478021
 C         3.608633         0.420113         0.716404
 O         2.189268         0.851488         0.813294
 C         3.565246        -0.773111        -0.171155
 O         2.225501        -0.998772        -0.593863
 H        -0.156175         1.116881         0.201012
 H         0.727217         0.625901        -1.320046
 H        -0.374092        -0.664108        -0.815205
 H         0.516267        -0.913540         2.486899
 H         1.001297        -2.080065         1.333317
 H         2.702000        -0.064064         2.954750
 H         2.723529        -1.864408         3.161558
 H         4.857099        -1.305796         1.913749
 H         4.147708         1.353996         0.795417
 H         4.351176        -1.166388        -0.845298
