19
Iteration:   994
 C         0.199638         0.255718        -0.294425
 C         1.452672        -0.234451         0.425764
 C         1.273380        -1.237633         1.586344
 C         2.536638        -1.236663         2.318207
 C         3.843486        -0.841984         1.398432
 C         3.549564         0.507746         0.812604
 O         2.189517         0.926131         0.738911
 C         3.615364        -0.750238        -0.151013
 O         2.260070        -1.074973        -0.474114
 H        -0.353672         0.919367         0.348410
 H         0.548376         0.819125        -1.164977
 H        -0.384892        -0.640344        -0.411721
 H         0.481415        -1.001601         2.272214
 H         1.120857        -2.237250         0.948639
 H         2.385959        -0.354720         3.010032
 H         3.063833        -2.144854         2.790886
 H         4.782130        -0.947771         1.933945
 H         4.259110         1.333671         0.857144
 H         4.308214        -0.971670        -0.884345
