19
Iteration:  1614
 C         0.178616         0.190395        -0.333064
 C         1.456538        -0.223273         0.384511
 C         1.206726        -0.942850         1.703510
 C         2.644445        -1.444484         2.289918
 C         3.809118        -0.746651         1.460765
 C         3.564026         0.561178         0.677522
 O         2.198562         0.911976         0.655724
 C         3.592602        -0.848008         0.044734
 O         2.269179        -1.080235        -0.480791
 H        -0.317795         0.860863         0.371277
 H         0.466895         0.450194        -1.322648
 H        -0.294756        -0.777293        -0.522098
 H         0.875803        -0.017811         2.366035
 H         0.459685        -1.733327         1.614387
 H         2.797654        -1.371710         3.390868
 H         2.814174        -2.551293         2.205251
 H         4.745578        -1.026685         1.828815
 H         4.247287         1.346968         0.440116
 H         4.351132        -1.096447        -0.818039
