19
Iteration:  4505charge 0 multiplicity 1
 C         0.087741         0.172595        -0.291850
 C         1.443134        -0.220365         0.388367
 C         1.172713        -0.747900         1.766170
 C         2.606039        -1.066045         2.393428
 C         3.782799        -0.957260         1.380840
 C         3.611767         0.352038         0.624400
 O         2.357178         0.836592         0.593454
 C         3.563162        -0.995585        -0.038937
 O         2.300420        -1.071174        -0.468826
 H        -0.364793         1.087798         0.105434
 H         0.287326         0.399562        -1.413331
 H        -0.621956        -0.669370        -0.254023
 H         0.669032         0.034278         2.182540
 H         0.541346        -1.704991         1.758558
 H         2.863717        -0.356493         3.207490
 H         2.700082        -2.093384         2.874887
 H         4.645830        -1.283543         1.957846
 H         4.356635         1.146407         0.700345
 H         4.255847        -1.318833        -0.702031
