19
Iteration:  4066charge 0 multiplicity 1
 C         0.204026         0.204717        -0.426708
 C         1.442365        -0.228094         0.377412
 C         1.330233        -0.722358         1.853530
 C         2.681975        -1.223500         2.424386
 C         3.770224        -0.865919         1.478476
 C         3.585090         0.387536         0.652706
 O         2.238741         0.960284         0.518308
 C         3.518640        -1.019197         0.000231
 O         2.158356        -1.182560        -0.465328
 H        -0.540425         0.658271         0.193893
 H         0.597763         0.882979        -1.228162
 H        -0.245929        -0.662169        -0.881084
 H         1.094769         0.060591         2.526300
 H         0.456144        -1.489449         1.853365
 H         2.888170        -0.786656         3.370924
 H         2.509319        -2.313425         2.428914
 H         4.850975        -0.970588         1.656456
 H         4.314354         1.188834         0.587213
 H         4.382846        -1.471141        -0.592600
