19
Iteration:  1276
 C         0.078091         0.073216        -0.226935
 C         1.503737        -0.221979         0.334957
 C         1.282288        -0.962191         1.663801
 C         2.581495        -1.368735         2.381903
 C         3.734018        -0.916105         1.446249
 C         3.593518         0.439516         0.780263
 O         2.244385         0.934348         0.587344
 C         3.613894        -0.742870        -0.044378
 O         2.341885        -0.930250        -0.556597
 H        -0.649624         0.641845         0.398339
 H         0.021842         0.642808        -1.230655
 H        -0.458255        -0.939317        -0.338649
 H         0.823856        -0.264225         2.502672
 H         0.637223        -1.858776         1.557674
 H         2.667473        -0.659004         3.216899
 H         2.507676        -2.384959         2.537699
 H         4.818120        -1.138568         1.844186
 H         4.373282         1.180839         0.932259
 H         4.297489        -0.948224        -0.864282
