19
Iteration:  1610
 C         0.212033         0.218093        -0.341350
 C         1.448395        -0.247077         0.397314
 C         1.235522        -0.932393         1.713062
 C         2.605123        -1.458859         2.280927
 C         3.835626        -0.722281         1.509505
 C         3.549171         0.567596         0.641779
 O         2.186401         0.893344         0.652343
 C         3.602370        -0.848994         0.041597
 O         2.248610        -1.098982        -0.476206
 H        -0.378483         0.833437         0.350193
 H         0.377979         0.584622        -1.377305
 H        -0.392622        -0.741369        -0.488543
 H         0.935252        -0.141353         2.369411
 H         0.380263        -1.707948         1.614391
 H         2.870760        -1.404455         3.320037
 H         2.820469        -2.463737         1.959720
 H         4.908287        -0.936267         1.819317
 H         4.326730         1.368381         0.479168
 H         4.385545        -1.069355        -0.689547
