19
Iteration:  3398charge 0 multiplicity 1
 C         0.177895         0.206526        -0.366810
 C         1.481599        -0.255902         0.411931
 C         1.262876        -0.693180         1.942137
 C         2.570155        -1.436149         2.263730
 C         3.794448        -0.749412         1.536964
 C         3.522355         0.432371         0.593656
 O         2.261191         0.963383         0.442389
 C         3.655477        -0.873228        -0.063665
 O         2.200143        -1.260257        -0.355316
 H        -0.540172         0.814237         0.227401
 H         0.428475         0.840109        -1.274980
 H        -0.160602        -0.764673        -0.822203
 H         1.056689         0.091149         2.581684
 H         0.378539        -1.383809         1.994194
 H         2.823271        -1.316508         3.341876
 H         2.704926        -2.480128         1.923904
 H         4.775880        -0.722839         2.024292
 H         4.253860         1.176286         0.665813
 H         4.374742        -1.138333        -0.786385
