19
Iteration:  1029
 C         0.128237         0.188433        -0.188443
 C         1.505028        -0.309885         0.261179
 C         1.351928        -1.095648         1.607040
 C         2.622126        -1.337662         2.361941
 C         3.762142        -0.733725         1.580003
 C         3.537873         0.435180         0.741118
 O         2.195887         0.928898         0.682576
 C         3.623641        -0.871897         0.024325
 O         2.274402        -0.878447        -0.684111
 H        -0.255784         0.790611         0.620288
 H         0.033497         0.663859        -1.185586
 H        -0.642407        -0.594287        -0.436179
 H         0.560290        -0.487853         2.196163
 H         0.800291        -2.157935         1.319886
 H         2.462246        -0.883643         3.371344
 H         2.896615        -2.442063         2.719941
 H         4.865251        -0.975382         1.856770
 H         4.109035         1.300123         0.654301
 H         4.335950        -1.366287        -0.659665
