19
Iteration:  1404charge 0 multiplicity 1
 C         0.099181         0.012117        -0.240662
 C         1.523920        -0.185577         0.383507
 C         1.286878        -0.992223         1.627475
 C         2.594011        -1.313127         2.401803
 C         3.765166        -0.846486         1.485412
 C         3.608969         0.439872         0.722238
 O         2.310847         0.987591         0.680349
 C         3.519213        -0.889630        -0.056960
 O         2.259434        -0.874702        -0.622140
 H        -0.596462         0.728142         0.165336
 H         0.180316         0.281336        -1.326529
 H        -0.404912        -0.930751        -0.365857
 H         0.601486        -0.339085         2.173687
 H         0.827409        -1.937764         1.458083
 H         2.562731        -0.749347         3.389745
 H         2.673361        -2.361866         2.933525
 H         4.846581        -1.211369         1.790117
 H         4.284720         1.267259         0.797118
 H         4.194993        -1.296485        -0.739515
