19
Iteration:   818charge 0 multiplicity 1
 C         0.151301         0.081701        -0.320721
 C         1.471122        -0.231465         0.377788
 C         1.224962        -1.121282         1.610749
 C         2.592356        -1.394070         2.270697
 C         3.764879        -0.726203         1.571652
 C         3.606685         0.500504         0.705103
 O         2.255946         0.992560         0.810475
 C         3.605715        -0.760233        -0.073866
 O         2.254827        -0.955129        -0.564293
 H        -0.375913         0.731469         0.377203
 H         0.289114         0.277276        -1.368137
 H        -0.408351        -0.836142        -0.480277
 H         0.626137        -0.579301         2.351434
 H         0.619084        -2.150429         1.389575
 H         2.690002        -1.081095         3.306073
 H         2.783972        -2.428594         2.286977
 H         4.842857        -0.853605         1.884354
 H         4.465028         1.221629         0.582663
 H         4.348310        -1.131037        -0.876204
