19
Iteration:  1345charge 0 multiplicity 1
 C         0.235977         0.298501        -0.421615
 C         1.432551        -0.263226         0.366118
 C         1.310139        -0.952932         1.865699
 C         2.665910        -1.483233         2.203006
 C         3.785878        -0.787569         1.452415
 C         3.449158         0.506504         0.740950
 O         2.143791         0.997383         0.564452
 C         3.597265        -0.809435        -0.048142
 O         2.304516        -1.197073        -0.329299
 H        -0.445044         0.902510         0.288762
 H         0.616587         0.998629        -1.169378
 H        -0.316196        -0.615858        -0.782186
 H         0.924575        -0.090187         2.394246
 H         0.489860        -1.826568         1.992672
 H         2.904908        -1.390705         3.257115
 H         2.703468        -2.429019         1.706389
 H         4.733229        -0.882062         1.845942
 H         4.162686         1.341548         0.731488
 H         4.384465        -0.976714        -0.839228
