19
Iteration:   675
 C         0.141710         0.139695        -0.239167
 C         1.432583        -0.263759         0.330926
 C         1.266154        -1.055546         1.683114
 C         2.613110        -1.523989         2.180746
 C         3.723519        -0.652412         1.579142
 C         3.562757         0.551054         0.705909
 O         2.194116         0.965901         0.673287
 C         3.670049        -0.751767        -0.021332
 O         2.323472        -1.044034        -0.534606
 H        -0.167780         0.713187         0.618365
 H         0.330219         0.652012        -1.211838
 H        -0.484814        -0.769811        -0.434416
 H         0.802017        -0.240571         2.305960
 H         0.539636        -2.015520         1.663433
 H         2.629918        -1.688025         3.241759
 H         2.782578        -2.415991         1.661314
 H         4.775090        -0.758342         2.086084
 H         4.088015         1.477897         0.811344
 H         4.562265        -1.074263        -0.510624
