19
Iteration:  3525charge 0 multiplicity 1
 C         0.230567         0.282819        -0.277431
 C         1.436640        -0.295952         0.343051
 C         1.283959        -1.137464         1.696186
 C         2.589545        -1.051707         2.464569
 C         3.731785        -0.801144         1.470693
 C         3.614096         0.399172         0.644000
 O         2.313153         0.985919         0.553455
 C         3.537109        -1.026795        -0.033939
 O         2.184551        -1.088251        -0.476749
 H        -0.401217         0.902955         0.393154
 H         0.405283         0.839028        -1.112536
 H        -0.507359        -0.477998        -0.585851
 H         0.535267        -0.754307         2.448299
 H         0.931740        -2.135044         1.479005
 H         2.677499        -0.079482         2.926829
 H         2.847602        -1.742077         3.235342
 H         4.767595        -1.092237         1.648311
 H         4.360786         1.027744         0.291262
 H         4.390896        -1.337936        -0.554805
