19
Iteration:  3514charge 0 multiplicity 1
 C         0.192186         0.286587        -0.314462
 C         1.476482        -0.194247         0.397608
 C         1.306168        -1.201280         1.687114
 C         2.639870        -0.996497         2.471050
 C         3.736276        -0.838234         1.483624
 C         3.613211         0.393583         0.573283
 O         2.311818         0.952319         0.558394
 C         3.469298        -0.950403         0.003219
 O         2.192512        -1.116285        -0.468392
 H        -0.152405         1.035220         0.411955
 H         0.543581         0.712046        -1.156581
 H        -0.378179        -0.618653        -0.481244
 H         0.383328        -0.770602         2.182612
 H         1.132924        -2.190395         1.303190
 H         2.348998        -0.156489         3.080861
 H         2.765176        -1.824919         3.132423
 H         4.738616        -1.105725         1.807419
 H         4.421579         1.010872         0.464723
 H         3.982655        -1.518390        -0.719572
