19
Iteration:  2317
 C         0.169230         0.099063        -0.194087
 C         1.494107        -0.211260         0.355927
 C         1.252971        -0.988202         1.571617
 C         2.590528        -1.281443         2.450060
 C         3.735000        -0.831816         1.526514
 C         3.613341         0.469678         0.674514
 O         2.302155         0.944744         0.631244
 C         3.573525        -0.959222         0.016367
 O         2.226612        -0.956318        -0.636448
 H        -0.372555         0.780842         0.482577
 H         0.098692         0.598888        -1.200932
 H        -0.421901        -0.757665        -0.388714
 H         0.646357        -0.285727         2.213624
 H         0.658708        -1.892597         1.462029
 H         2.614969        -0.606569         3.328050
 H         2.734395        -2.265193         2.728907
 H         4.751834        -0.957332         1.876922
 H         4.365584         1.239062         0.373713
 H         4.379328        -1.284213        -0.524505
