19
Iteration:  2627charge 0 multiplicity 1
 C         0.169895         0.243604        -0.231183
 C         1.424889        -0.284376         0.327586
 C         1.233698        -1.034473         1.694215
 C         2.607172        -1.187371         2.429581
 C         3.798553        -0.893010         1.470580
 C         3.538523         0.422204         0.696041
 O         2.297893         0.899711         0.549827
 C         3.626460        -0.829266        -0.086845
 O         2.241291        -1.097900        -0.499334
 H        -0.300831         0.778081         0.544207
 H         0.503242         1.122825        -0.823928
 H        -0.357125        -0.488601        -0.703243
 H         0.451546        -0.444030         2.163881
 H         0.811239        -2.052286         1.538961
 H         2.688006        -0.377583         3.242345
 H         2.554575        -2.134455         3.007971
 H         4.817511        -0.703723         1.883866
 H         4.303525         1.274316         0.710240
 H         4.170050        -1.117204        -0.893944
