19
Iteration:  4782charge 0 multiplicity 1
 C         0.176142         0.281450        -0.307090
 C         1.460260        -0.153079         0.389253
 C         1.299934        -0.816419         1.856393
 C         2.584804        -1.279671         2.426461
 C         3.692958        -0.837292         1.509936
 C         3.561255         0.372619         0.625807
 O         2.313984         0.952472         0.421511
 C         3.616233        -1.038904        -0.034180
 O         2.239713        -1.168051        -0.503538
 H        -0.364513         0.673989         0.568689
 H         0.251692         1.036222        -1.089720
 H        -0.313746        -0.637710        -0.671815
 H         0.614459        -0.183464         2.559899
 H         0.714225        -1.683183         1.744860
 H         2.713565        -0.737322         3.358370
 H         2.653177        -2.294708         2.596103
 H         4.633618        -0.942919         2.071960
 H         4.322772         1.138457         0.397120
 H         4.276704        -1.325023        -0.746856
