19
Iteration:  2029
 C         0.179390         0.112615        -0.458706
 C         1.426996        -0.267139         0.404477
 C         1.317484        -0.789145         1.880292
 C         2.600759        -1.578450         2.112463
 C         3.814541        -0.786588         1.555411
 C         3.564322         0.527360         0.702058
 O         2.182447         0.964927         0.632265
 C         3.590323        -0.775166         0.013296
 O         2.260900        -1.073434        -0.438311
 H        -0.515166         0.614552         0.286771
 H         0.450316         0.684501        -1.364564
 H        -0.475042        -0.745502        -0.833182
 H         1.124247         0.041064         2.511408
 H         0.325621        -1.338824         1.889313
 H         2.853731        -1.562056         3.232984
 H         2.606257        -2.585534         1.765790
 H         4.836006        -0.780033         1.906383
 H         4.353240         1.249524         0.658088
 H         4.476239        -1.217476        -0.579281
