19
Iteration:  2697
 C         0.196292         0.080062        -0.355315
 C         1.435040        -0.208548         0.487720
 C         1.243804        -0.719060         1.859525
 C         2.585020        -1.471119         2.218164
 C         3.782674        -0.883938         1.386096
 C         3.560800         0.515901         0.675091
 O         2.249449         0.970273         0.528355
 C         3.618325        -0.762166        -0.012493
 O         2.262170        -1.148515        -0.406348
 H        -0.587623         0.916586        -0.088357
 H         0.613923         0.410791        -1.327604
 H        -0.190029        -1.043544        -0.411993
 H         1.109263         0.104271         2.576153
 H         0.325349        -1.297282         1.929120
 H         2.768136        -1.468617         3.283824
 H         2.404992        -2.626914         1.995087
 H         4.692331        -0.949295         1.945000
 H         4.271192         1.302041         0.860521
 H         4.400497        -1.163601        -0.735804
