19
Iteration:  1756charge 0 multiplicity 1
 C         0.183967         0.013909        -0.341165
 C         1.435351        -0.256547         0.367799
 C         1.211055        -0.920668         1.691837
 C         2.622436        -1.363363         2.332450
 C         3.784321        -0.848237         1.442650
 C         3.600089         0.492379         0.713939
 O         2.280207         0.996838         0.769181
 C         3.557103        -0.870688        -0.032676
 O         2.255645        -0.901458        -0.548256
 H        -0.548077         0.673352         0.157641
 H         0.339032         0.420406        -1.408945
 H        -0.324428        -0.923175        -0.571764
 H         0.667392        -0.140318         2.409564
 H         0.675200        -1.850745         1.551794
 H         2.720291        -1.057303         3.396912
 H         2.640028        -2.452328         2.442942
 H         4.865709        -1.084893         1.621200
 H         4.384096         1.208788         0.396244
 H         4.333404        -1.326037        -0.539394
