19
Iteration:  4582charge 0 multiplicity 1
 C         0.228624         0.328040        -0.275784
 C         1.452969        -0.286657         0.330347
 C         1.211777        -0.894461         1.686514
 C         2.567276        -0.993642         2.487949
 C         3.739757        -0.869474         1.365553
 C         3.684113         0.370383         0.605972
 O         2.264346         0.852146         0.639598
 C         3.549894        -0.951653        -0.055978
 O         2.229164        -1.260890        -0.433001
 H        -0.115442         0.998455         0.507700
 H         0.531178         1.039453        -1.139169
 H        -0.593931        -0.332301        -0.523044
 H         0.561569        -0.268971         2.220995
 H         0.824239        -1.984305         1.582047
 H         2.801606        -0.181235         3.137612
 H         2.551800        -1.953969         3.024114
 H         4.653646        -1.173032         1.835372
 H         4.415617         1.079025         0.177993
 H         4.316782        -1.183984        -0.779388
