19
Iteration:  2062
 C         0.104374         0.180064        -0.236697
 C         1.519778        -0.216413         0.391427
 C         1.249776        -0.861743         1.724660
 C         2.583168        -1.556274         2.211635
 C         3.748451        -0.774276         1.509053
 C         3.510972         0.532814         0.747387
 O         2.235352         1.003199         0.442216
 C         3.665897        -0.758985         0.020566
 O         2.331922        -1.181701        -0.445207
 H        -0.287088         0.765743         0.651435
 H         0.193522         0.982423        -0.964686
 H        -0.538898        -0.706496        -0.596029
 H         0.676309        -0.217339         2.359595
 H         0.630597        -1.802952         1.512486
 H         2.748407        -1.367968         3.345329
 H         2.708078        -2.580379         2.041973
 H         4.671971        -0.819035         2.032637
 H         4.237201         1.338534         0.972071
 H         4.355639        -1.333152        -0.646445
