19
Iteration:  1191charge 0 multiplicity 1
 C         0.167428         0.163693        -0.352549
 C         1.465581        -0.292389         0.343397
 C         1.226867        -1.059500         1.666106
 C         2.652251        -1.207800         2.427527
 C         3.784897        -0.844487         1.457415
 C         3.566197         0.500330         0.773897
 O         2.229147         0.866156         0.833396
 C         3.596491        -0.808854        -0.137428
 O         2.242327        -0.954826        -0.623673
 H        -0.377539         0.835169         0.326732
 H         0.505837         0.487101        -1.349991
 H        -0.386028        -0.791739        -0.604350
 H         0.549042        -0.461862         2.271886
 H         0.789479        -2.065495         1.395455
 H         2.593181        -0.804689         3.465770
 H         2.838948        -2.256952         2.866194
 H         4.865904        -1.188127         1.578430
 H         4.247849         1.329261         0.517322
 H         4.368662        -1.126815        -0.875519
