19
Iteration:   198charge 0 multiplicity 1
 C         0.175034         0.196719        -0.286859
 C         1.398565        -0.269226         0.362540
 C         1.269791        -0.855765         1.745331
 C         2.626558        -1.550286         2.126196
 C         3.787024        -0.671007         1.555496
 C         3.514700         0.540871         0.709856
 O         2.170940         0.909200         0.662177
 C         3.623207        -0.753001        -0.045750
 O         2.372004        -1.180450        -0.447901
 H        -0.612593         0.620256         0.357815
 H         0.476750         0.940613        -0.932178
 H        -0.318285        -0.577127        -0.780778
 H         0.815901        -0.163453         2.462946
 H         0.427271        -1.556101         1.755017
 H         2.821188        -1.945339         3.132562
 H         2.591769        -2.493578         1.579657
 H         4.795950        -0.811531         2.039317
 H         4.203225         1.451488         0.887222
 H         4.432270        -0.843207        -0.844211
