19
Iteration:  2905
 C         0.196407         0.067832        -0.435762
 C         1.400900        -0.166476         0.417388
 C         1.184367        -0.821217         1.828682
 C         2.644156        -1.409167         2.251660
 C         3.749540        -0.884167         1.424059
 C         3.612574         0.542521         0.623211
 O         2.279390         0.984352         0.622059
 C         3.595289        -0.836464        -0.055227
 O         2.261370        -1.108294        -0.306279
 H        -0.181984         1.075391        -0.186750
 H         0.352106         0.161559        -1.582788
 H        -0.498745        -0.787914        -0.266210
 H         0.904574        -0.011580         2.532310
 H         0.471627        -1.690627         1.787287
 H         2.944316        -1.206205         3.245962
 H         2.447832        -2.563598         2.263884
 H         4.747396        -1.195592         1.809941
 H         4.230297         1.438323         0.523150
 H         4.389436        -1.202912        -0.736515
