19
Iteration:    62charge 0 multiplicity 1
 C         0.148273         0.221659        -0.321674
 C         1.464916        -0.220493         0.372830
 C         1.322728        -1.308843         1.693295
 C         2.629922        -1.222632         2.509432
 C         3.706234        -0.867666         1.488252
 C         3.645739         0.495119         0.687841
 O         2.277146         0.933409         0.699921
 C         3.525106        -0.804285        -0.065469
 O         2.203917        -0.913795        -0.663862
 H        -0.564809         0.755158         0.325528
 H         0.470534         1.082990        -1.030115
 H        -0.481564        -0.657878        -0.695145
 H         0.423841        -1.189499         2.307912
 H         1.216924        -2.323289         1.231902
 H         2.607376        -0.586970         3.450456
 H         2.853660        -2.197113         2.976605
 H         4.840815        -1.029739         1.709551
 H         4.357183         1.306623         0.642382
 H         4.319284        -1.038900        -0.788618
