19
Iteration:  3368charge 0 multiplicity 1
 C         0.141046         0.086207        -0.335089
 C         1.496860        -0.236978         0.319606
 C         1.266063        -0.672735         1.867152
 C         2.602659        -1.306858         2.267277
 C         3.777054        -0.873011         1.491397
 C         3.560435         0.404394         0.655351
 O         2.279225         1.000788         0.484996
 C         3.575301        -0.924473         0.039650
 O         2.212503        -1.129599        -0.423611
 H        -0.510130         0.353100         0.452251
 H         0.275328         0.747872        -1.249362
 H        -0.140192        -0.933536        -0.602489
 H         1.026327         0.246340         2.508107
 H         0.452399        -1.353798         1.982046
 H         2.831640        -1.235778         3.332658
 H         2.668853        -2.436797         2.190066
 H         4.826322        -1.142247         1.678340
 H         4.350111         1.189679         0.735700
 H         4.373332        -1.146284        -0.593858
