19
Iteration:  1813
 C         0.129647         0.176316        -0.324936
 C         1.463278        -0.342255         0.353664
 C         1.325104        -0.895222         1.812087
 C         2.558179        -1.598571         2.102499
 C         3.716258        -0.719198         1.573881
 C         3.529695         0.541585         0.621433
 O         2.218492         1.062364         0.545789
 C         3.667628        -0.811609         0.040918
 O         2.292995        -1.097632        -0.387959
 H        -0.483482         0.705577         0.402302
 H         0.447087         0.813780        -1.157098
 H        -0.367206        -0.761680        -0.540201
 H         1.292458         0.021198         2.593461
 H         0.518796        -1.584058         2.102499
 H         2.787620        -1.731751         3.141937
 H         2.538997        -2.586560         1.552087
 H         4.682452        -0.699071         2.143930
 H         4.291857         1.308499         0.739839
 H         4.484832        -1.186759        -0.577175
