19
Iteration:  4424
 C         0.200195         0.152495        -0.286408
 C         1.451607        -0.207459         0.357309
 C         1.311377        -0.685986         1.790162
 C         2.563074        -1.262747         2.306681
 C         3.710592        -0.805886         1.441986
 C         3.606332         0.378175         0.655259
 O         2.340828         0.933104         0.486190
 C         3.568156        -0.940234        -0.025886
 O         2.205564        -1.208235        -0.363113
 H        -0.493413         0.627009         0.428285
 H         0.225661         0.745873        -1.180113
 H        -0.368582        -0.735765        -0.589007
 H         0.811428         0.191377         2.350570
 H         0.402024        -1.355525         1.773739
 H         2.664812        -0.935154         3.337361
 H         2.612397        -2.360278         2.277219
 H         4.676623        -1.018071         1.906521
 H         4.452900         1.073543         0.564795
 H         4.398775        -1.430863        -0.625845
