19
Iteration:  3406
 C         0.265034         0.165150        -0.373985
 C         1.418660        -0.186001         0.397547
 C         1.259362        -0.753663         1.887064
 C         2.651550        -1.417057         2.264261
 C         3.751025        -0.723634         1.498902
 C         3.555475         0.444226         0.602585
 O         2.249744         0.963576         0.426363
 C         3.589099        -0.903786         0.027500
 O         2.212334        -1.226509        -0.325968
 H        -0.471768         0.758047         0.273881
 H         0.427648         0.817569        -1.174811
 H        -0.426228        -0.639697        -0.705076
 H         1.021255         0.142564         2.486362
 H         0.472302        -1.580283         2.076524
 H         2.741322        -1.463729         3.363319
 H         2.526054        -2.413063         1.857677
 H         4.766502        -0.808407         1.854709
 H         4.405056         1.049827         0.558718
 H         4.318994        -1.217082        -0.759528
