19
Iteration:  3593
 C         0.179363         0.073490        -0.429927
 C         1.448345        -0.095701         0.472075
 C         1.291223        -0.778150         1.847958
 C         2.621057        -1.395752         2.356937
 C         3.751796        -0.822544         1.488146
 C         3.587580         0.472161         0.651344
 O         2.295625         0.951800         0.467085
 C         3.572423        -0.942722        -0.062046
 O         2.187345        -1.081266        -0.368476
 H        -0.491098         0.664925         0.163568
 H         0.469690         0.581456        -1.410963
 H        -0.121494        -0.968877        -0.436279
 H         0.860201        -0.062329         2.514435
 H         0.337933        -1.497360         1.724601
 H         2.729462        -1.159402         3.437505
 H         2.751113        -2.490559         2.262985
 H         4.787145        -1.147181         1.882539
 H         4.392992         1.314834         0.393017
 H         4.191368        -1.344508        -0.916902
