19
Iteration:  2929charge 0 multiplicity 1
 C         0.209744         0.059244        -0.462700
 C         1.382217        -0.166473         0.435127
 C         1.289494        -0.738460         1.845171
 C         2.646278        -1.445246         2.163688
 C         3.851365        -0.790249         1.584323
 C         3.579739         0.436669         0.706333
 O         2.229232         1.069975         0.609728
 C         3.562330        -0.847962        -0.092769
 O         2.174265        -1.194559        -0.330137
 H        -0.272917         1.038320        -0.369120
 H         0.585539         0.032350        -1.594147
 H        -0.379004        -0.855745        -0.349784
 H         1.248885         0.119404         2.558243
 H         0.498898        -1.418323         1.926128
 H         2.711070        -1.783172         3.215095
 H         2.503349        -2.443240         1.616852
 H         4.916641        -0.899861         1.970903
 H         4.271990         1.205500         0.481594
 H         4.257627        -1.142867        -0.982500
