19
Iteration:  4280charge 0 multiplicity 1
 C         0.156091         0.064583        -0.301188
 C         1.479530        -0.145541         0.421728
 C         1.180190        -0.831305         1.745041
 C         2.522303        -0.994029         2.389799
 C         3.702399        -0.892834         1.422940
 C         3.808901         0.354088         0.610785
 O         2.433830         0.965086         0.600873
 C         3.488977        -0.987421        -0.025576
 O         2.169947        -1.118186        -0.489307
 H        -0.478021         0.713656         0.286255
 H         0.133788         0.277805        -1.409372
 H        -0.243395        -0.942513        -0.147997
 H         0.365407        -0.455602         2.498703
 H         0.841691        -1.811364         1.503940
 H         2.793542        -0.316815         3.275540
 H         2.412230        -2.046106         2.637993
 H         4.610438        -1.454398         1.675317
 H         4.609705         1.086217         0.450518
 H         4.295541        -1.461089        -0.635707
