19
Iteration:   783charge 0 multiplicity 1
 C         0.130407         0.298555        -0.161141
 C         1.447133        -0.258920         0.287694
 C         1.367240        -1.262498         1.562622
 C         2.606227        -1.300152         2.414063
 C         3.777570        -0.891602         1.503744
 C         3.502709         0.436688         0.812896
 O         2.130569         0.958782         0.566526
 C         3.621159        -0.710552        -0.023971
 O         2.370706        -1.012208        -0.594215
 H        -0.417899         0.865300         0.573315
 H         0.269144         1.178230        -0.820022
 H        -0.646037        -0.438622        -0.451333
 H         0.419286        -0.910033         2.065133
 H         1.323614        -2.345140         1.142062
 H         2.626429        -0.411952         3.114473
 H         2.724431        -2.220208         3.028618
 H         4.878166        -0.997973         1.859303
 H         4.033779         1.295945         0.910582
 H         4.398001        -0.957109        -0.653916
