19
Iteration:  3060
 C         0.162322         0.334875        -0.391683
 C         1.471995        -0.335883         0.375606
 C         1.262182        -1.151128         1.709734
 C         2.642971        -1.010422         2.434687
 C         3.820655        -0.846572         1.451587
 C         3.570784         0.408154         0.631841
 O         2.262190         0.898485         0.740934
 C         3.582601        -0.963390        -0.053774
 O         2.208530        -1.090792        -0.505740
 H        -0.402518         1.061802         0.243642
 H         0.441146         0.754861        -1.352611
 H        -0.655595        -0.341727        -0.700028
 H         0.468603        -0.665905         2.395394
 H         0.803925        -2.098372         1.413905
 H         2.520470        -0.078775         2.943652
 H         2.852113        -1.800769         3.183850
 H         4.814510        -0.967758         1.830975
 H         4.312680         1.177357         0.289894
 H         4.210900        -1.256732        -0.818357
