19
Iteration:  4857
 C         0.175737         0.225266        -0.375050
 C         1.471889        -0.296364         0.381030
 C         1.269734        -0.868129         1.865829
 C         2.638527        -1.113404         2.464331
 C         3.703988        -0.919705         1.402088
 C         3.610533         0.380396         0.684834
 O         2.345942         0.921239         0.529781
 C         3.516146        -0.863645        -0.015066
 O         2.181105        -1.157242        -0.520299
 H        -0.183002         1.123539         0.134150
 H         0.416220         0.624853        -1.336536
 H        -0.541042        -0.595261        -0.506106
 H         0.631449        -0.097988         2.332341
 H         0.545909        -1.688922         1.805696
 H         2.800382        -0.424763         3.332728
 H         2.875195        -2.230603         2.766975
 H         4.701042        -1.275758         1.621689
 H         4.578828         0.933107         0.561147
 H         4.159998        -1.186894        -0.677955
