19
Iteration:  3474charge 0 multiplicity 1
 C         0.170154         0.174151        -0.284600
 C         1.425490        -0.294348         0.349473
 C         1.256544        -0.977784         1.673164
 C         2.620588        -1.048767         2.457407
 C         3.770592        -0.950009         1.500310
 C         3.653824         0.427000         0.592708
 O         2.296065         0.915711         0.630076
 C         3.504761        -0.943212        -0.020090
 O         2.227452        -1.057565        -0.565430
 H        -0.036290         1.155536         0.236189
 H         0.131230         0.432098        -1.441315
 H        -0.657746        -0.613339        -0.110406
 H         0.754547        -0.294606         2.290970
 H         0.555389        -1.956138         1.671705
 H         2.805613        -0.137689         3.085447
 H         2.822940        -1.975350         3.042879
 H         4.822189        -1.031804         1.903076
 H         4.346707         1.339998         0.689989
 H         4.312915        -1.356452        -0.546263
