19
Iteration:  2958charge 0 multiplicity 1
 C         0.174101         0.139337        -0.286767
 C         1.427802        -0.292510         0.377056
 C         1.307796        -0.765958         1.844280
 C         2.568168        -1.497409         2.272989
 C         3.674522        -0.785594         1.480510
 C         3.560641         0.514632         0.673515
 O         2.229191         0.973172         0.435902
 C         3.697479        -0.883738        -0.045828
 O         2.300951        -1.089693        -0.379623
 H        -0.434298         0.885399         0.217612
 H         0.424753         0.592880        -1.268165
 H        -0.529908        -0.687236        -0.470960
 H         1.375953         0.104655         2.526861
 H         0.279876        -1.360047         2.078255
 H         2.723296        -1.451558         3.327045
 H         2.472226        -2.591721         2.035553
 H         4.692162        -0.814096         1.937158
 H         4.198301         1.398591         0.694512
 H         4.448043        -1.413959        -0.687401
