19
Iteration:  3204charge 0 multiplicity 1
 C         0.172532         0.160132        -0.286965
 C         1.500381        -0.249680         0.379270
 C         1.237069        -0.775329         1.793994
 C         2.609554        -1.275013         2.400177
 C         3.732887        -0.835121         1.483118
 C         3.584712         0.448775         0.589941
 O         2.276306         0.953842         0.537995
 C         3.541850        -0.927643        -0.023459
 O         2.302259        -1.164904        -0.483232
 H        -0.581466         0.441265         0.476274
 H         0.308480         0.943276        -1.001415
 H        -0.265778        -0.687016        -0.849887
 H         0.601995         0.082255         2.339853
 H         0.405921        -1.463727         1.684535
 H         2.654959        -1.052013         3.450997
 H         2.696602        -2.384156         2.435915
 H         4.751525        -1.132227         1.834635
 H         4.246025         1.267411         0.464191
 H         4.439141        -1.249963        -0.662713
