19
Iteration:  2166charge 0 multiplicity 1
 C         0.196191         0.261759        -0.225055
 C         1.443609        -0.295319         0.348594
 C         1.286418        -1.172784         1.570032
 C         2.559474        -1.230166         2.415688
 C         3.753279        -0.736949         1.513635
 C         3.596443         0.478044         0.594654
 O         2.259142         1.003228         0.672829
 C         3.595991        -0.882892         0.020776
 O         2.232794        -1.079505        -0.581845
 H        -0.193835         0.856318         0.609749
 H         0.459273         0.984987        -1.075833
 H        -0.635631        -0.414532        -0.322210
 H         0.572289        -0.909752         2.361760
 H         1.067114        -2.081144         1.138477
 H         2.443725        -0.604261         3.274837
 H         2.800354        -2.309311         2.845528
 H         4.760756        -1.096754         1.930188
 H         4.339356         1.209982         0.500026
 H         4.394450        -1.527238        -0.500280
