19
Iteration:  2451charge 0 multiplicity 1
 C         0.165586         0.024856        -0.334555
 C         1.431005        -0.251337         0.379418
 C         1.245308        -0.732282         1.860219
 C         2.573983        -1.475653         2.215994
 C         3.743542        -0.804760         1.486987
 C         3.581691         0.454149         0.660576
 O         2.295507         1.005879         0.621149
 C         3.650358        -0.895420        -0.009962
 O         2.240253        -0.998322        -0.486184
 H        -0.651579         0.277108         0.316663
 H         0.392901         0.574714        -1.177846
 H        -0.111656        -1.004876        -0.724750
 H         1.240419         0.165080         2.428131
 H         0.338987        -1.255541         1.953054
 H         2.684627        -1.203936         3.291977
 H         2.498229        -2.533942         2.123139
 H         4.692122        -0.956204         2.080410
 H         4.282481         1.193986         0.402012
 H         4.421531        -1.261708        -0.871184
