19
Iteration:  4351charge 0 multiplicity 1
 C         0.221218         0.222122        -0.339770
 C         1.440266        -0.200880         0.393279
 C         1.174921        -0.788342         1.768114
 C         2.564681        -1.232252         2.323161
 C         3.798490        -0.810876         1.467275
 C         3.622030         0.401348         0.497955
 O         2.318378         0.951110         0.525835
 C         3.591338        -0.964149        -0.006682
 O         2.225919        -1.211584        -0.261409
 H        -0.247105         1.101998         0.247755
 H         0.399243         0.625392        -1.317909
 H        -0.609971        -0.536768        -0.476951
 H         0.636584        -0.220645         2.451241
 H         0.541260        -1.760869         1.741240
 H         2.670251        -0.830829         3.327919
 H         2.682023        -2.391850         2.317520
 H         4.703950        -1.023968         2.073284
 H         4.426305         1.058386         0.144463
 H         4.194127        -1.434807        -0.890830
