19
Iteration:  4894charge 0 multiplicity 1
 C         0.174879         0.224031        -0.217099
 C         1.457293        -0.224020         0.380911
 C         1.226277        -0.940174         1.630598
 C         2.616939        -1.168671         2.341264
 C         3.732897        -0.798033         1.527698
 C         3.663065         0.403134         0.516381
 O         2.393443         0.973077         0.515149
 C         3.457419        -1.003687         0.086555
 O         2.197103        -1.105958        -0.391491
 H        -0.258840         1.089276         0.285855
 H         0.285650         0.299791        -1.335853
 H        -0.572906        -0.584495        -0.081601
 H         0.510011        -0.291934         2.265517
 H         0.798709        -1.903650         1.387287
 H         2.617270        -0.691052         3.339672
 H         2.777573        -2.184651         2.529598
 H         4.732948        -1.089176         1.926712
 H         4.471981         1.008202         0.171653
 H         4.303213        -1.490209        -0.578702
