19
Iteration:   855charge 0 multiplicity 1
 C         0.224497         0.073229        -0.461981
 C         1.393447        -0.265727         0.387731
 C         1.293235        -0.901769         1.832852
 C         2.689195        -1.555130         2.239647
 C         3.813097        -0.870583         1.360474
 C         3.502489         0.501760         0.900448
 O         2.112390         0.988875         0.675530
 C         3.657302        -0.666670        -0.088771
 O         2.264677        -1.016810        -0.476710
 H        -0.473025         0.826092        -0.048709
 H         0.604121         0.602220        -1.374699
 H        -0.404826        -0.852955        -0.586210
 H         1.118294        -0.044126         2.536936
 H         0.461828        -1.660474         1.818489
 H         2.778155        -1.266496         3.266438
 H         2.685148        -2.660407         2.156422
 H         4.695652        -0.869398         1.961698
 H         4.345095         1.225615         1.025248
 H         4.330378        -0.689074        -0.895693
