19
Iteration:  2465
 C         0.156488         0.024307        -0.440499
 C         1.415110        -0.289154         0.431351
 C         1.280395        -0.692243         1.888637
 C         2.590443        -1.401299         2.242996
 C         3.778831        -0.834776         1.445779
 C         3.573217         0.471954         0.723245
 O         2.250720         0.968281         0.596997
 C         3.593745        -0.857798        -0.057678
 O         2.285226        -1.058656        -0.424514
 H        -0.631119         0.602134         0.075503
 H         0.417786         0.909710        -1.126515
 H        -0.323219        -0.858418        -0.878837
 H         1.100659         0.221647         2.399411
 H         0.511511        -1.369522         2.242641
 H         2.773047        -1.651394         3.218091
 H         2.491331        -2.436324         1.711319
 H         4.840758        -0.941910         1.760090
 H         4.369177         1.214559         0.883815
 H         4.273832        -1.350040        -0.763395
