19
Iteration:  1129charge 0 multiplicity 1
 C         0.168488         0.181503        -0.271811
 C         1.422810        -0.236217         0.410739
 C         1.278940        -0.946753         1.716377
 C         2.608271        -1.480408         2.191533
 C         3.771934        -0.764987         1.475464
 C         3.496189         0.486519         0.753354
 O         2.184190         0.950171         0.567047
 C         3.671815        -0.761593        -0.039107
 O         2.341129        -1.087867        -0.416322
 H        -0.511486         0.800109         0.340903
 H         0.357185         0.823038        -1.104611
 H        -0.349581        -0.668002        -0.700783
 H         0.801040        -0.342962         2.495152
 H         0.450999        -1.727917         1.623527
 H         2.635862        -1.318752         3.293037
 H         2.899218        -2.577486         2.098172
 H         4.695726        -0.967511         1.940158
 H         4.213780         1.331428         0.637817
 H         4.439631        -0.940459        -0.788278
