19
Iteration:  4679
 C         0.126347         0.290103        -0.275614
 C         1.506390        -0.246781         0.328441
 C         1.205944        -0.733667         1.789636
 C         2.582810        -1.242448         2.356375
 C         3.790859        -0.801216         1.494103
 C         3.699514         0.444048         0.566304
 O         2.273044         0.905117         0.591136
 C         3.584374        -0.977487        -0.014041
 O         2.241625        -1.294208        -0.451956
 H        -0.309846         1.117726         0.276158
 H         0.415015         0.576246        -1.353889
 H        -0.755278        -0.340101        -0.350014
 H         0.681967         0.110248         2.172718
 H         0.400256        -1.666649         1.762377
 H         2.607396        -0.919599         3.374201
 H         2.538716        -2.418651         2.389792
 H         4.765864        -0.900303         1.972802
 H         4.329471         1.350233         0.468995
 H         4.200867        -1.539664        -0.797882
