19
Iteration:  4908charge 0 multiplicity 1
 C         0.116760         0.210540        -0.274056
 C         1.455172        -0.238019         0.339950
 C         1.188822        -0.943735         1.809178
 C         2.517209        -1.165143         2.438230
 C         3.774588        -0.719737         1.492252
 C         3.713213         0.421579         0.593189
 O         2.416553         0.996554         0.535827
 C         3.593529        -0.985664        -0.048766
 O         2.165291        -1.206541        -0.510826
 H        -0.045586         1.173651         0.337418
 H         0.238477         0.597462        -1.268266
 H        -0.703938        -0.531018        -0.049349
 H         0.538228        -0.406863         2.457025
 H         0.594221        -1.951617         1.564376
 H         2.632222        -0.745070         3.398712
 H         2.686096        -2.245918         2.565111
 H         4.723846        -1.096083         1.781643
 H         4.533777         1.118142         0.388101
 H         4.242652        -1.566215        -0.695610
