19
Iteration:  4757
 C         0.110069         0.160243        -0.293179
 C         1.429851        -0.274345         0.345420
 C         1.238446        -0.704233         1.699263
 C         2.570797        -1.221130         2.372624
 C         3.830503        -0.851280         1.474103
 C         3.663584         0.388564         0.649426
 O         2.347152         0.915490         0.571498
 C         3.593753        -0.976032         0.011348
 O         2.184458        -1.105561        -0.453461
 H        -0.232495         0.841899         0.537152
 H         0.391717         0.682396        -1.183189
 H        -0.552877        -0.711446        -0.545644
 H         0.798506         0.180023         2.167146
 H         0.409232        -1.495222         2.026497
 H         2.530675        -0.834698         3.369589
 H         2.437194        -2.423421         2.391670
 H         4.840134        -1.175803         1.707994
 H         4.342572         1.158182         0.359481
 H         4.346737        -1.500048        -0.744298
