19
Iteration:   505charge 0 multiplicity 1
 C         0.146335         0.121544        -0.329711
 C         1.454023        -0.224852         0.420470
 C         1.248858        -1.226094         1.540172
 C         2.599077        -1.209753         2.351741
 C         3.754795        -0.959326         1.411917
 C         3.583226         0.460587         0.766077
 O         2.217410         0.901467         0.799068
 C         3.600700        -0.675950        -0.114264
 O         2.321063        -0.897712        -0.504752
 H        -0.326642         0.842566         0.286725
 H         0.405923         0.526528        -1.315951
 H        -0.401535        -0.797678        -0.220781
 H         0.459095        -0.808252         2.194141
 H         1.134494        -2.253468         1.173048
 H         2.479955        -0.280964         2.934450
 H         2.660854        -2.067100         3.017272
 H         4.780881        -1.166415         1.864468
 H         4.315322         1.309865         0.861915
 H         4.289763        -0.852084        -0.973630
