19
Iteration:  3342charge 0 multiplicity 1
 C         0.077771         0.063476        -0.316412
 C         1.498733        -0.133997         0.417659
 C         1.283397        -0.866915         1.757816
 C         2.558762        -1.319545         2.440561
 C         3.706550        -0.808877         1.488042
 C         3.688121         0.386728         0.535005
 O         2.345780         1.008272         0.479004
 C         3.526102        -0.919438         0.000403
 O         2.229211        -1.033930        -0.416424
 H        -0.699512         0.622010         0.289629
 H         0.407916         0.462624        -1.228168
 H        -0.299012        -0.988794        -0.397305
 H         0.807236        -0.215529         2.383419
 H         0.559476        -1.711682         1.521250
 H         2.555567        -0.986040         3.506894
 H         2.853499        -2.367628         2.546200
 H         4.772673        -0.960715         1.596632
 H         4.470825         1.081775         0.574383
 H         4.356728        -1.389757        -0.589711
