19
Iteration:   111
 C         0.164908         0.214952        -0.283146
 C         1.450649        -0.351310         0.382025
 C         1.222565        -1.079894         1.648720
 C         2.565568        -1.315685         2.271480
 C         3.742306        -0.754908         1.465165
 C         3.583761         0.514903         0.673041
 O         2.240421         0.883323         0.835370
 C         3.652747        -0.683138        -0.133756
 O         2.309686        -1.091230        -0.516930
 H        -0.300466         1.042446         0.317578
 H         0.488004         0.670792        -1.189431
 H        -0.498917        -0.623709        -0.426656
 H         0.642477        -0.351158         2.276108
 H         0.659332        -1.999778         1.477316
 H         2.547261        -0.872620         3.243864
 H         2.708998        -2.394008         2.500952
 H         4.743949        -1.010261         1.697098
 H         4.266604         1.435871         0.624552
 H         4.409941        -1.168229        -0.810104
