19
Iteration:  4621
 C         0.153830         0.151610        -0.432676
 C         1.477730        -0.151079         0.368277
 C         1.298279        -0.894799         1.819690
 C         2.623821        -1.145371         2.500770
 C         3.758433        -0.882341         1.517118
 C         3.657332         0.368080         0.647535
 O         2.407250         0.962315         0.543522
 C         3.416854        -0.989451        -0.074564
 O         2.136775        -1.054242        -0.436442
 H        -0.509949         0.893939         0.025432
 H         0.392241         0.635413        -1.383158
 H        -0.314559        -0.808173        -0.690032
 H         0.478119        -0.329088         2.349041
 H         0.925513        -1.896644         1.545708
 H         2.743260        -0.551597         3.522167
 H         2.790447        -2.234254         2.825817
 H         4.720977        -1.384112         1.664422
 H         4.410714         0.980693         0.158630
 H         4.081991        -1.365979        -0.796147
