19
Iteration:  4011
 C         0.133264         0.204964        -0.278052
 C         1.521353        -0.142357         0.354913
 C         1.234027        -0.943563         1.682387
 C         2.609538        -1.080550         2.521053
 C         3.705906        -0.853832         1.467009
 C         3.708348         0.300524         0.608804
 O         2.344153         0.981463         0.519573
 C         3.525032        -1.044403        -0.031817
 O         2.166445        -1.087810        -0.452265
 H        -0.381960         0.930287         0.327534
 H         0.131582         0.490076        -1.316991
 H        -0.235921        -0.804130        -0.294265
 H         0.478919        -0.623008         2.332312
 H         0.772811        -1.863967         1.170043
 H         2.760767        -0.307705         3.241588
 H         2.641722        -1.979886         3.185698
 H         4.754985        -1.105063         1.686568
 H         4.445470         1.024688         0.519072
 H         4.271008        -1.403138        -0.737945
