19
Iteration:   632
 C         0.194719         0.049448        -0.387101
 C         1.499470        -0.202327         0.408091
 C         1.312945        -0.920326         1.798091
 C         2.650478        -1.634665         2.205192
 C         3.760626        -0.880785         1.447071
 C         3.481029         0.575233         0.801925
 O         2.116580         1.026938         0.631585
 C         3.645090        -0.665295        -0.020571
 O         2.307899        -1.017877        -0.473022
 H        -0.494163         0.698351         0.168796
 H         0.369389         0.464858        -1.425164
 H        -0.297316        -0.919808        -0.716154
 H         0.999768        -0.204873         2.527485
 H         0.370405        -1.480978         1.726987
 H         2.853927        -1.579765         3.282032
 H         2.592445        -2.701807         1.939684
 H         4.838983        -0.761548         1.879832
 H         4.259121         1.308709         1.037358
 H         4.240109        -0.872948        -0.902615
