19
Iteration:   258
 C         0.121932         0.046379        -0.263776
 C         1.471627        -0.256735         0.338789
 C         1.266033        -1.113456         1.606213
 C         2.588058        -1.256629         2.348973
 C         3.738024        -0.846079         1.431012
 C         3.627998         0.496797         0.752385
 O         2.261336         0.950560         0.886377
 C         3.555218        -0.809908        -0.100652
 O         2.291620        -0.884893        -0.621327
 H        -0.452530         0.656368         0.465701
 H         0.279032         0.529076        -1.312834
 H        -0.309719        -0.947948        -0.568902
 H         0.690697        -0.437148         2.220957
 H         0.875471        -2.097293         1.326674
 H         2.631895        -0.532937         3.147406
 H         2.773926        -2.310359         2.644104
 H         4.629747        -1.214444         1.830343
 H         4.419368         1.286289         0.633877
 H         4.246286        -1.154088        -0.894052
