19
Iteration:   959charge 0 multiplicity 1
 C         0.178309         0.150439        -0.442149
 C         1.424168        -0.236551         0.374007
 C         1.283202        -1.143089         1.729439
 C         2.657875        -1.279303         2.427771
 C         3.825694        -0.822275         1.456702
 C         3.597872         0.542742         0.746472
 O         2.198565         0.842619         0.868626
 C         3.573298        -0.777371        -0.090312
 O         2.232734        -0.923782        -0.663468
 H        -0.592076         0.714546         0.125864
 H         0.451895         0.678115        -1.342496
 H        -0.274297        -0.693861        -0.913726
 H         0.594946        -0.568492         2.350817
 H         0.704788        -2.043330         1.544179
 H         2.683354        -0.836394         3.486945
 H         2.751921        -2.446406         2.692923
 H         4.750350        -1.136191         1.834734
 H         4.276860         1.453031         0.502407
 H         4.323600        -1.088860        -0.898059
