19
Iteration:   706
 C         0.165639         0.123295        -0.381172
 C         1.411000        -0.229043         0.374925
 C         1.332376        -1.077889         1.658119
 C         2.685997        -1.365631         2.350563
 C         3.775971        -0.925669         1.438490
 C         3.533226         0.488664         0.851522
 O         2.145878         0.932164         0.691974
 C         3.636225        -0.670005        -0.081798
 O         2.293883        -0.953414        -0.545586
 H        -0.413530         0.775278         0.280557
 H         0.331428         0.729205        -1.308304
 H        -0.370296        -0.846042        -0.617236
 H         0.589265        -0.597541         2.430476
 H         0.545257        -1.996399         1.525327
 H         2.822132        -0.915989         3.341746
 H         2.747927        -2.426832         2.612353
 H         4.861375        -1.079553         1.719428
 H         4.043888         1.444474         1.072097
 H         4.379413        -0.922652        -0.843860
