19
Iteration:  4110charge 0 multiplicity 1
 C         0.142194         0.192114        -0.324165
 C         1.426883        -0.106395         0.434188
 C         1.245091        -0.731339         1.774384
 C         2.596514        -1.282764         2.220384
 C         3.759169        -0.736513         1.489662
 C         3.616552         0.434367         0.528914
 O         2.302267         0.990843         0.509240
 C         3.610096        -1.035679         0.028394
 O         2.240245        -1.291012        -0.268044
 H        -0.289668         0.991764         0.220591
 H         0.365433         0.541811        -1.400484
 H        -0.397060        -0.722783        -0.347830
 H         0.663439        -0.107623         2.445402
 H         0.602412        -1.736270         1.685758
 H         2.696373        -1.204116         3.277517
 H         2.524245        -2.351850         1.873590
 H         4.661724        -1.051935         2.033964
 H         4.513533         1.116362         0.388231
 H         4.280559        -1.532156        -0.767360
