19
Iteration:  4498charge 0 multiplicity 1
 C         0.140263         0.199413        -0.297038
 C         1.426734        -0.235238         0.341545
 C         1.224880        -0.771119         1.796855
 C         2.617573        -1.106759         2.399019
 C         3.742212        -0.967535         1.445295
 C         3.608851         0.362590         0.571719
 O         2.310329         0.872021         0.620107
 C         3.580198        -0.946905        -0.013557
 O         2.297231        -1.134260        -0.480895
 H        -0.321242         1.070397         0.135554
 H         0.332964         0.453995        -1.351864
 H        -0.646733        -0.540343        -0.384134
 H         0.599564         0.110175         2.271673
 H         0.528249        -1.530871         1.888100
 H         2.939239        -0.402821         3.254635
 H         2.397300        -2.048059         2.837586
 H         4.759905        -1.338932         1.621990
 H         4.276044         1.222810         0.377979
 H         4.387924        -1.279790        -0.720500
