19
Iteration:  4186charge 0 multiplicity 1
 C         0.094428         0.159440        -0.372215
 C         1.464703        -0.160000         0.378144
 C         1.251907        -0.805846         1.742058
 C         2.561063        -1.133955         2.406230
 C         3.814664        -0.847940         1.439152
 C         3.692716         0.405260         0.558469
 O         2.365129         0.890882         0.604193
 C         3.524078        -0.931080        -0.018519
 O         2.177442        -1.159831        -0.348650
 H        -0.335874         0.977781         0.159275
 H         0.386435         0.456972        -1.446221
 H        -0.464694        -0.755674        -0.334863
 H         0.476914        -0.226125         2.148335
 H         0.748684        -1.865002         1.570677
 H         2.570007        -0.608017         3.299482
 H         2.613555        -2.237749         2.461477
 H         4.805128        -1.195160         1.729718
 H         4.573267         1.071817         0.392687
 H         4.162499        -1.600275        -0.579187
