19
Iteration:   664
 C         0.092424         0.117824        -0.261422
 C         1.496134        -0.195734         0.373604
 C         1.240759        -0.998354         1.670092
 C         2.637678        -1.586927         2.083752
 C         3.750608        -0.657130         1.536083
 C         3.555725         0.629093         0.779724
 O         2.212947         0.917881         0.582617
 C         3.664718        -0.733133         0.050914
 O         2.311409        -1.080796        -0.417672
 H        -0.591189         0.797497         0.257009
 H         0.139071         0.758169        -1.182928
 H        -0.560733        -0.796559        -0.348003
 H         0.818616        -0.354588         2.488126
 H         0.553734        -1.944633         1.419585
 H         2.751280        -1.825883         3.126817
 H         2.748447        -2.524550         1.616672
 H         4.833568        -0.715917         1.999003
 H         4.309785         1.387060         0.903821
 H         4.411498        -1.131519        -0.625408
