19
Iteration:   346
 C         0.118405         0.182865        -0.303823
 C         1.427533        -0.228487         0.362218
 C         1.252370        -1.102116         1.629588
 C         2.674205        -1.340970         2.311470
 C         3.798019        -0.855659         1.471208
 C         3.558109         0.512549         0.807648
 O         2.203607         0.934514         0.779472
 C         3.632631        -0.724923        -0.104586
 O         2.299362        -1.055213        -0.563987
 H        -0.574778         0.786422         0.311250
 H         0.216039         0.797234        -1.204416
 H        -0.513235        -0.614977        -0.648518
 H         0.554915        -0.708915         2.326278
 H         0.911397        -2.024632         1.203272
 H         2.686861        -0.754943         3.155264
 H         2.861465        -2.378284         2.514709
 H         4.743680        -0.869691         1.823765
 H         4.224900         1.434552         0.940835
 H         4.365579        -1.110324        -0.866667
