19
Iteration:  3739
 C         0.164703         0.354318        -0.321398
 C         1.382160        -0.274109         0.402880
 C         1.245944        -1.114023         1.715615
 C         2.638205        -0.985483         2.455216
 C         3.805059        -0.826671         1.460500
 C         3.626295         0.346225         0.590789
 O         2.335285         0.863091         0.608226
 C         3.548061        -0.997074        -0.015136
 O         2.179206        -1.076683        -0.516858
 H        -0.396158         1.032462         0.434733
 H         0.532415         1.008420        -1.101104
 H        -0.471284        -0.524485        -0.671689
 H         0.358138        -0.966242         2.390023
 H         1.110339        -2.253881         1.423279
 H         2.834891        -0.017747         2.918593
 H         2.495613        -1.681682         3.262622
 H         4.773411        -1.005190         1.945049
 H         4.457834         1.051637         0.414406
 H         4.204603        -1.326371        -0.857250
