19
Iteration:   245charge 0 multiplicity 1
 C         0.199377         0.068858        -0.366429
 C         1.463269        -0.173106         0.443261
 C         1.303548        -1.057159         1.683628
 C         2.651171        -1.359946         2.380155
 C         3.737698        -0.833914         1.468739
 C         3.564122         0.453226         0.761977
 O         2.264807         0.950525         0.759288
 C         3.576242        -0.740093        -0.137628
 O         2.200345        -0.923249        -0.605567
 H        -0.651384         0.491700         0.177585
 H         0.380590         0.745961        -1.274371
 H        -0.211292        -0.988230        -0.558409
 H         0.461939        -0.746172         2.353893
 H         0.760789        -1.963022         1.377153
 H         2.690241        -1.079036         3.403647
 H         2.775494        -2.479095         2.538442
 H         4.822800        -0.902574         1.766354
 H         4.262778         1.220019         0.751696
 H         4.378167        -1.074416        -0.714534
