19
Iteration:  2675
 C         0.149010         0.016826        -0.451442
 C         1.419512        -0.176993         0.334369
 C         1.263049        -0.807469         1.804197
 C         2.658243        -1.405644         2.296044
 C         3.800808        -0.765049         1.490251
 C         3.603184         0.391673         0.689183
 O         2.286841         1.038521         0.625177
 C         3.569399        -0.891841        -0.023805
 O         2.197874        -1.024783        -0.379345
 H        -0.489765         0.672422         0.297821
 H         0.282634         0.714899        -1.303669
 H        -0.263829        -1.093337        -0.570803
 H         0.849134        -0.065887         2.500735
 H         0.450903        -1.517394         1.727846
 H         2.829705        -1.400421         3.359136
 H         2.626973        -2.573304         2.071191
 H         4.770819        -1.136808         1.844738
 H         4.451751         0.991186         0.493925
 H         4.235214        -1.194667        -0.930651
