19
Iteration:   589charge 0 multiplicity 1
 C         0.137897         0.054906        -0.357855
 C         1.411284        -0.209146         0.372546
 C         1.215073        -0.979068         1.644242
 C         2.646262        -1.470693         2.298967
 C         3.815622        -0.825553         1.449909
 C         3.522214         0.534810         0.750357
 O         2.233036         0.963440         0.788430
 C         3.658470        -0.738015        -0.089208
 O         2.310919        -0.962353        -0.494238
 H        -0.642572         0.467036         0.295276
 H         0.101627         0.747088        -1.246327
 H        -0.253267        -0.908526        -0.837553
 H         0.564557        -0.495493         2.331449
 H         0.648159        -1.882586         1.531917
 H         2.714302        -1.143892         3.376581
 H         2.709949        -2.634422         2.434585
 H         4.920587        -1.027317         1.861508
 H         4.221858         1.394126         0.581909
 H         4.489884        -0.986893        -0.774515
