19
Iteration:   438
 C         0.137358         0.186893        -0.274388
 C         1.424664        -0.260066         0.367875
 C         1.175398        -0.987585         1.796239
 C         2.643763        -1.567802         2.185097
 C         3.734387        -0.768040         1.439699
 C         3.477027         0.541387         0.810283
 O         2.184745         0.941623         0.586877
 C         3.655578        -0.657069        -0.067739
 O         2.466807        -1.107998        -0.477068
 H        -0.420871         0.724600         0.459282
 H         0.266686         0.926619        -1.071901
 H        -0.615320        -0.585824        -0.519454
 H         0.881439        -0.202929         2.518393
 H         0.444607        -1.786968         1.625792
 H         2.989396        -1.407088         3.172413
 H         2.651149        -2.473568         1.650176
 H         4.791875        -0.875002         2.064377
 H         4.177995         1.340450         1.019564
 H         4.490641        -0.908592        -0.678529
