19
Iteration:  3054charge 0 multiplicity 1
 C         0.166473         0.350969        -0.435505
 C         1.409886        -0.309010         0.360606
 C         1.282559        -1.143312         1.725155
 C         2.645394        -1.008685         2.421163
 C         3.827201        -0.830470         1.454687
 C         3.540173         0.408227         0.662675
 O         2.281665         0.841471         0.758758
 C         3.586463        -0.964697        -0.074938
 O         2.200400        -1.089677        -0.486262
 H        -0.432736         0.988281         0.252858
 H         0.522815         0.872390        -1.331678
 H        -0.581608        -0.458553        -0.655445
 H         0.579322        -0.601111         2.304414
 H         0.924485        -2.132563         1.413847
 H         2.631667         0.063110         2.856204
 H         2.869149        -1.703004         3.220894
 H         4.879120        -1.003285         1.754945
 H         4.258226         1.219335         0.509375
 H         4.195418        -1.376331        -0.961034
