19
Iteration:  4159
 C         0.149314         0.069622        -0.326137
 C         1.454655        -0.173059         0.419135
 C         1.295682        -0.702371         1.893044
 C         2.632055        -1.258569         2.469187
 C         3.665494        -0.930327         1.417710
 C         3.543160         0.340957         0.703718
 O         2.307900         0.969557         0.455899
 C         3.549720        -0.983387        -0.011275
 O         2.276506        -1.054741        -0.595611
 H        -0.168492         1.098791         0.047979
 H         0.482998         0.155324        -1.307057
 H        -0.531719        -0.826835        -0.194827
 H         0.749685         0.217070         2.311378
 H         0.595196        -1.428832         1.976201
 H         2.825786        -0.456383         3.318260
 H         2.634384        -2.333261         2.682014
 H         4.715628        -0.977087         1.729991
 H         4.500254         0.780106         0.570919
 H         4.420371        -1.278231        -0.607947
