19
Iteration:  2755
 C         0.176728         0.131459        -0.299298
 C         1.444021        -0.182505         0.371749
 C         1.244490        -0.942546         1.736961
 C         2.567020        -1.401217         2.319977
 C         3.784539        -0.795276         1.513660
 C         3.593254         0.488548         0.622495
 O         2.304768         0.986694         0.530719
 C         3.572162        -0.822677        -0.083585
 O         2.260453        -1.103203        -0.352131
 H        -0.263112         0.860217         0.363702
 H         0.259008         0.439989        -1.375395
 H        -0.465511        -0.758457        -0.198680
 H         0.718903        -0.245586         2.458477
 H         0.521919        -1.713406         1.423136
 H         2.508575        -1.168374         3.434211
 H         2.694871        -2.469947         2.220366
 H         4.747834        -0.841968         2.034840
 H         4.501750         1.138921         0.541403
 H         4.206510        -1.139037        -0.858727
