19
Iteration:  4799
 C         0.238145         0.224450        -0.260599
 C         1.464954        -0.202858         0.412704
 C         1.226794        -0.878136         1.703810
 C         2.640557        -1.239484         2.438653
 C         3.781583        -0.892452         1.476439
 C         3.620868         0.407847         0.599714
 O         2.330002         0.987354         0.381632
 C         3.480785        -0.929036         0.033948
 O         2.166225        -1.127046        -0.343869
 H        -0.630725         0.671576         0.259901
 H         0.582357         0.857685        -1.098406
 H        -0.341061        -0.495713        -0.866897
 H         0.662627        -0.199100         2.239991
 H         0.553917        -1.775187         1.334057
 H         2.730008        -0.747192         3.428988
 H         2.701472        -2.441809         2.691121
 H         4.828797        -1.103396         1.738985
 H         4.440784         1.075137         0.644851
 H         4.146062        -1.544982        -0.747740
