19
Iteration:   828
 C         0.143699         0.026698        -0.394369
 C         1.437795        -0.235887         0.391471
 C         1.240637        -0.988361         1.670281
 C         2.638501        -1.442381         2.271820
 C         3.782508        -0.810227         1.434468
 C         3.591568         0.582037         0.744715
 O         2.237154         0.935409         0.825248
 C         3.604387        -0.754487        -0.033968
 O         2.266242        -0.949014        -0.519504
 H        -0.490994         0.829207        -0.011702
 H         0.467682         0.441321        -1.332074
 H        -0.337007        -0.944456        -0.335244
 H         0.627612        -0.442844         2.401487
 H         0.568582        -1.882866         1.327715
 H         2.648485        -1.150754         3.345362
 H         2.669264        -2.532201         2.222305
 H         4.816971        -1.052065         1.864243
 H         4.352515         1.312725         0.493234
 H         4.411196        -0.936669        -0.788089
