19
Iteration:  4090
 C         0.242440         0.247005        -0.385209
 C         1.441249        -0.208799         0.446245
 C         1.132153        -0.822062         1.845518
 C         2.611489        -1.368493         2.350391
 C         3.838727        -0.749874         1.490646
 C         3.600704         0.470391         0.523870
 O         2.332987         0.954902         0.418643
 C         3.544940        -0.923258        -0.049959
 O         2.184138        -1.248936        -0.220038
 H        -0.433147         0.839202         0.180899
 H         0.729791         0.823167        -1.226270
 H        -0.287354        -0.591518        -0.792399
 H         0.869774        -0.118584         2.635795
 H         0.312357        -1.539557         1.686366
 H         2.737372        -1.081387         3.402630
 H         2.479387        -2.433691         2.175606
 H         4.887061        -0.754330         1.787322
 H         4.401125         1.233116         0.217597
 H         4.146462        -1.471446        -0.813149
