19
Iteration:  1247charge 0 multiplicity 1
 C         0.174669         0.291640        -0.300333
 C         1.467187        -0.315763         0.352215
 C         1.313201        -1.160668         1.640760
 C         2.629578        -1.279269         2.382910
 C         3.754670        -0.751989         1.515930
 C         3.575836         0.539655         0.634018
 O         2.227216         0.933544         0.748142
 C         3.574304        -0.847602         0.000302
 O         2.222071        -1.045244        -0.579548
 H        -0.401696         1.048511         0.262535
 H         0.435101         0.904526        -1.129844
 H        -0.326654        -0.632371        -0.631852
 H         0.559405        -0.890135         2.310323
 H         0.936154        -2.209948         1.404469
 H         2.584619        -0.777638         3.382985
 H         2.846114        -2.447627         2.477159
 H         4.730714        -0.944102         1.793808
 H         4.379752         1.250623         0.462641
 H         4.249714        -1.278422        -0.652676
