19
Iteration:   611charge 0 multiplicity 1
 C         0.192266        -0.026651        -0.402794
 C         1.435588        -0.278248         0.416916
 C         1.282381        -0.945293         1.797121
 C         2.646062        -1.422007         2.173113
 C         3.734999        -0.784101         1.485139
 C         3.549971         0.510783         0.827980
 O         2.183593         0.910236         0.773183
 C         3.603070        -0.718540        -0.048313
 O         2.289582        -0.889682        -0.602246
 H        -0.542822         0.629447         0.076525
 H         0.455449         0.576432        -1.325147
 H        -0.324455        -0.880297        -0.937535
 H         1.019250        -0.125365         2.396394
 H         0.558140        -1.578848         2.202198
 H         2.738243        -1.459917         3.285894
 H         2.677986        -2.549970         1.906849
 H         4.824905        -1.216873         1.672582
 H         4.332625         1.279505         0.779980
 H         4.412245        -1.081017        -0.693761
