19
Iteration:   722charge 0 multiplicity 1
 C         0.120774         0.085749        -0.431920
 C         1.428756        -0.194033         0.411822
 C         1.276936        -1.142241         1.673900
 C         2.660382        -1.290039         2.354009
 C         3.792692        -0.878480         1.401480
 C         3.569025         0.455535         0.854309
 O         2.231962         0.958309         0.828523
 C         3.551154        -0.735114        -0.140982
 O         2.260712        -0.919802        -0.557102
 H        -0.688751         0.617699         0.116937
 H         0.540739         0.505168        -1.337270
 H        -0.177747        -0.868819        -0.835946
 H         0.435243        -0.823392         2.260133
 H         1.166161        -2.123303         1.255410
 H         2.687821        -0.554710         3.161222
 H         2.799778        -2.293559         2.801534
 H         4.803283        -1.041444         1.803453
 H         4.377939         1.210251         0.863603
 H         4.429252        -0.907892        -0.812212
