19
Iteration:   603charge 0 multiplicity 1
 C         0.135932         0.004641        -0.423314
 C         1.450200        -0.296038         0.371055
 C         1.240084        -0.968496         1.799448
 C         2.625385        -1.406367         2.228601
 C         3.827428        -0.832934         1.478210
 C         3.606628         0.512478         0.751358
 O         2.161123         0.937272         0.812314
 C         3.602185        -0.733146        -0.010086
 O         2.295175        -0.888826        -0.602934
 H        -0.571429         0.489599         0.256576
 H         0.482647         0.621987        -1.251915
 H        -0.258080        -0.935531        -0.812252
 H         0.905337        -0.087891         2.375139
 H         0.430876        -1.742730         1.805489
 H         2.792758        -1.300296         3.335782
 H         2.667017        -2.510828         1.861244
 H         4.867736        -1.013012         1.893593
 H         4.336129         1.258343         0.756549
 H         4.248049        -0.964332        -0.824282
