19
Iteration:  3558charge 0 multiplicity 1
 C         0.159798         0.178741        -0.311924
 C         1.441090        -0.262019         0.341953
 C         1.253164        -0.866608         1.689087
 C         2.633734        -1.147292         2.451921
 C         3.756287        -0.811602         1.475327
 C         3.635009         0.391616         0.664598
 O         2.331022         0.918865         0.630945
 C         3.553167        -0.943769        -0.098612
 O         2.216086        -1.130494        -0.491313
 H        -0.576556         0.498902         0.470455
 H         0.091634         0.801656        -1.134994
 H        -0.362404        -0.744375        -0.613863
 H         0.828509        -0.045866         2.318929
 H         0.564215        -1.707470         1.615666
 H         2.569968        -0.453453         3.326570
 H         2.701865        -2.156258         2.863086
 H         4.726252        -1.249249         1.844579
 H         4.256776         1.231003         0.362130
 H         4.321774        -1.316737        -0.753005
