19
Iteration:   123charge 0 multiplicity 1
 C         0.133807         0.097147        -0.353164
 C         1.437359        -0.258449         0.386131
 C         1.233859        -1.026536         1.720547
 C         2.611839        -1.407437         2.346356
 C         3.768696        -0.815212         1.400472
 C         3.589258         0.507453         0.753029
 O         2.216312         0.909414         0.737931
 C         3.627220        -0.766526        -0.113486
 O         2.314719        -0.914287        -0.519325
 H        -0.352883         0.946637         0.231468
 H         0.444782         0.420728        -1.366311
 H        -0.637988        -0.708102        -0.528304
 H         0.744676        -0.264405         2.393715
 H         0.501093        -1.835946         1.691810
 H         2.730172        -1.063275         3.348898
 H         2.748361        -2.530819         2.288629
 H         4.775244        -1.021457         1.815106
 H         4.342784         1.347494         0.790787
 H         4.440959        -1.228593        -0.756341
