19
Iteration:  1134charge 0 multiplicity 1
 C         0.172179         0.138583        -0.264470
 C         1.449752        -0.184674         0.395290
 C         1.261392        -0.948338         1.721867
 C         2.636259        -1.465426         2.213543
 C         3.746224        -0.836846         1.503777
 C         3.517653         0.494723         0.743708
 O         2.204008         0.961724         0.548843
 C         3.650400        -0.717525        -0.045216
 O         2.321334        -1.113032        -0.436049
 H        -0.487154         0.683024         0.434282
 H         0.348861         0.887299        -1.095484
 H        -0.454390        -0.757504        -0.501204
 H         0.756362        -0.356499         2.563292
 H         0.610810        -1.737146         1.359230
 H         2.547300        -1.163237         3.249813
 H         2.756328        -2.499972         1.985416
 H         4.767353        -0.936484         1.998074
 H         4.167027         1.338094         0.856001
 H         4.435846        -0.858977        -0.792937
