19
Iteration:  2468charge 0 multiplicity 1
 C         0.157689         0.030762        -0.458722
 C         1.431399        -0.266658         0.420627
 C         1.292838        -0.695939         1.895633
 C         2.608328        -1.395765         2.241114
 C         3.781610        -0.840262         1.430605
 C         3.590928         0.460856         0.728610
 O         2.231807         0.963202         0.589232
 C         3.584731        -0.830109        -0.043269
 O         2.275709        -1.089809        -0.414817
 H        -0.637791         0.589505         0.105673
 H         0.474752         0.899703        -1.137586
 H        -0.380479        -0.798022        -0.887385
 H         1.084777         0.273558         2.492951
 H         0.480791        -1.453612         2.209740
 H         2.718260        -1.725181         3.309193
 H         2.474630        -2.379718         1.688800
 H         4.794031        -0.979896         1.696265
 H         4.349971         1.264674         0.936463
 H         4.209555        -1.274646        -0.693481
