19
Iteration:  3993charge 0 multiplicity 1
 C         0.136719         0.362734        -0.336731
 C         1.373625        -0.286807         0.372987
 C         1.312205        -1.023613         1.750411
 C         2.642445        -1.045030         2.493873
 C         3.789219        -0.863014         1.573165
 C         3.618537         0.365774         0.572352
 O         2.358842         0.921310         0.523317
 C         3.477478        -1.000676        -0.016882
 O         2.196638        -1.143886        -0.529264
 H        -0.161656         1.265169         0.194720
 H         0.571776         0.717986        -1.374030
 H        -0.736606        -0.306841        -0.436196
 H         0.456747        -0.590227         2.357737
 H         1.065633        -2.029503         1.556523
 H         2.675855        -0.251980         3.344531
 H         2.777419        -2.053934         2.942755
 H         4.761536        -1.039601         2.030662
 H         4.281045         1.243864         0.257840
 H         4.274760        -1.569092        -0.609566
