19
Iteration:  2459
 C         0.159508         0.032744        -0.379071
 C         1.382955        -0.305895         0.420734
 C         1.266627        -0.709857         1.873491
 C         2.565588        -1.443309         2.198211
 C         3.772152        -0.817845         1.495236
 C         3.537252         0.487981         0.700088
 O         2.292859         0.981208         0.615296
 C         3.643896        -0.915826        -0.075422
 O         2.275834        -1.000154        -0.452070
 H        -0.649981         0.480515         0.229903
 H         0.392034         0.665779        -1.239296
 H        -0.087711        -0.922335        -0.869753
 H         1.155189         0.346941         2.353921
 H         0.335265        -1.298771         2.185074
 H         2.913157        -1.422296         3.359887
 H         2.481031        -2.475506         1.944072
 H         4.745387        -0.899403         1.942219
 H         4.379415         1.201763         0.590201
 H         4.358132        -1.361882        -0.820441
