19
Iteration:  3812charge 0 multiplicity 1
 C         0.098349         0.161427        -0.369181
 C         1.434723        -0.203497         0.374561
 C         1.261337        -0.721910         1.805046
 C         2.600172        -1.243061         2.378426
 C         3.812697        -0.934953         1.414617
 C         3.570147         0.435216         0.650169
 O         2.359039         0.940507         0.607480
 C         3.574581        -0.867405         0.014468
 O         2.213797        -1.203085        -0.483757
 H        -0.389732         1.091436         0.034140
 H         0.353930         0.208100        -1.438300
 H        -0.560157        -0.737333        -0.307441
 H         0.903615         0.128608         2.404234
 H         0.473125        -1.507990         1.769236
 H         2.816010        -0.746488         3.351508
 H         2.671166        -2.400089         2.511454
 H         4.752061        -1.252407         1.796021
 H         4.359842         1.122685         0.501598
 H         4.289957        -1.273346        -0.734771
