19
Iteration:   377
 C         0.155367        -0.041409        -0.357788
 C         1.449820        -0.245641         0.426988
 C         1.251093        -0.889191         1.807539
 C         2.612970        -1.526730         2.225456
 C         3.792598        -0.908536         1.439534
 C         3.542318         0.509905         0.781282
 O         2.203879         0.960210         0.707658
 C         3.610794        -0.664226        -0.098895
 O         2.304440        -0.878727        -0.557188
 H        -0.684335         0.386885         0.241420
 H         0.458682         0.694645        -1.183185
 H        -0.092016        -0.979788        -0.900243
 H         0.961940        -0.046980         2.476444
 H         0.371263        -1.569619         1.801444
 H         2.791405        -1.344378         3.357893
 H         2.687814        -2.667769         2.221034
 H         4.756112        -1.029167         1.886198
 H         4.288514         1.379424         0.912647
 H         4.404383        -0.984612        -0.826345
