19
Iteration:  1363charge 0 multiplicity 1
 C         0.176919         0.216579        -0.328093
 C         1.396129        -0.234797         0.407759
 C         1.266412        -0.889875         1.717110
 C         2.634545        -1.500698         2.197710
 C         3.810955        -0.786846         1.490978
 C         3.533241         0.527917         0.715849
 O         2.193173         0.905044         0.584326
 C         3.635853        -0.737844        -0.063970
 O         2.273434        -1.187216        -0.363085
 H        -0.274065         0.949484         0.305278
 H         0.568931         0.889805        -1.090172
 H        -0.426673        -0.607264        -0.747012
 H         0.817851        -0.218541         2.529658
 H         0.493681        -1.563193         1.455284
 H         2.804037        -1.126623         3.254312
 H         2.708312        -2.577861         2.332172
 H         4.853986        -0.737450         1.857571
 H         4.263803         1.321182         0.759556
 H         4.330161        -1.011401        -0.758717
