19
Iteration:  2058charge 0 multiplicity 1
 C         0.120094         0.208615        -0.231015
 C         1.499687        -0.243530         0.387998
 C         1.286211        -0.869937         1.744718
 C         2.574726        -1.531424         2.218371
 C         3.739902        -0.782722         1.527954
 C         3.528411         0.526383         0.748475
 O         2.191360         0.996215         0.432523
 C         3.677223        -0.747427         0.000210
 O         2.327396        -1.185386        -0.442376
 H        -0.333183         0.676214         0.606332
 H         0.259352         0.928368        -1.067761
 H        -0.430496        -0.571035        -0.597743
 H         0.728512        -0.142536         2.380056
 H         0.517993        -1.721376         1.579503
 H         2.745331        -1.515235         3.258643
 H         2.659956        -2.614118         1.860096
 H         4.782949        -0.717166         2.025348
 H         4.235532         1.248970         1.020083
 H         4.477556        -1.319358        -0.589029
