19
Iteration:  4215
 C         0.285317         0.357805        -0.359230
 C         1.462483        -0.222284         0.398568
 C         1.237048        -1.004293         1.794937
 C         2.597243        -1.138211         2.407279
 C         3.828603        -0.781440         1.479830
 C         3.563672         0.402583         0.528298
 O         2.261811         0.943718         0.503283
 C         3.545097        -1.007895        -0.007403
 O         2.154759        -1.238549        -0.388862
 H        -0.269808         0.965863         0.372689
 H         0.726762         1.055743        -1.142300
 H        -0.408896        -0.418821        -0.714456
 H         0.531687        -0.280143         2.264249
 H         0.779555        -1.954976         1.724951
 H         2.469710        -0.432200         3.321494
 H         2.761448        -2.108557         2.985082
 H         4.847739        -0.815587         1.934081
 H         4.481002         0.955881         0.350718
 H         4.235666        -1.589097        -0.753428
