19
Iteration:  1670charge 0 multiplicity 1
 C         0.126586         0.108537        -0.285540
 C         1.451508        -0.271424         0.350190
 C         1.319800        -1.146563         1.609032
 C         2.619728        -1.112685         2.411482
 C         3.738588        -0.841382         1.475309
 C         3.640348         0.442743         0.662043
 O         2.278352         0.933385         0.790897
 C         3.574539        -0.906075        -0.009463
 O         2.224404        -0.898621        -0.653470
 H        -0.339535         0.822508         0.389783
 H         0.346607         0.745600        -1.165225
 H        -0.411323        -0.795364        -0.337749
 H         0.424313        -0.676634         2.217896
 H         0.999365        -2.136542         1.322689
 H         2.415753        -0.356416         3.165487
 H         2.583866        -2.148857         2.831227
 H         4.671456        -1.221179         1.920481
 H         4.407804         1.196617         0.649742
 H         4.264830        -1.313995        -0.668149
