19
Iteration:  4973
 C         0.185886         0.135998        -0.426165
 C         1.474818        -0.135129         0.493399
 C         1.217956        -0.831895         1.853547
 C         2.555540        -1.231948         2.385377
 C         3.772375        -0.782526         1.450374
 C         3.654753         0.353493         0.475803
 O         2.357036         0.912248         0.608593
 C         3.538853        -0.978598        -0.095416
 O         2.211790        -1.075414        -0.353408
 H        -0.587229         0.778647         0.142067
 H         0.285170         0.707212        -1.321199
 H        -0.317485        -0.839325        -0.741885
 H         0.709424        -0.259478         2.570221
 H         0.501420        -1.731373         1.655676
 H         2.466792        -0.825446         3.323734
 H         2.674518        -2.274465         2.463363
 H         4.716237        -1.092838         1.797264
 H         4.416009         1.101903         0.131935
 H         4.294552        -1.360692        -0.657018
