19
Iteration:   723charge 0 multiplicity 1
 C         0.120688         0.079043        -0.431404
 C         1.427576        -0.192552         0.412097
 C         1.278863        -1.147224         1.667795
 C         2.655908        -1.287694         2.351186
 C         3.793662        -0.878830         1.397851
 C         3.573805         0.458265         0.845989
 O         2.237885         0.958456         0.838036
 C         3.546595        -0.744138        -0.132044
 O         2.257587        -0.915459        -0.556967
 H        -0.676238         0.628397         0.119719
 H         0.553132         0.506892        -1.316668
 H        -0.158080        -0.865939        -0.846944
 H         0.403960        -0.867918         2.218077
 H         1.134937        -2.094094         1.278859
 H         2.688131        -0.531937         3.169134
 H         2.804189        -2.308596         2.845154
 H         4.771129        -1.014305         1.781795
 H         4.389626         1.250206         0.809186
 H         4.449753        -0.881115        -0.801753
