19
Iteration:  4665
 C         0.163882         0.226320        -0.255647
 C         1.419438        -0.289514         0.338596
 C         1.186149        -0.763097         1.739415
 C         2.538843        -1.165229         2.372837
 C         3.757658        -0.856786         1.486590
 C         3.651479         0.404258         0.602652
 O         2.361149         0.881493         0.492685
 C         3.614517        -0.905360        -0.036393
 O         2.223226        -1.182400        -0.415198
 H        -0.088192         0.921179         0.540040
 H         0.214918         0.747540        -1.236288
 H        -0.527405        -0.610618        -0.253499
 H         0.697192        -0.007815         2.385763
 H         0.501565        -1.622923         1.779353
 H         2.798251        -0.797971         3.439086
 H         2.510558        -2.306576         2.434302
 H         4.731719        -1.203842         1.844275
 H         4.518761         1.078224         0.518712
 H         4.368094        -1.250870        -0.591153
