19
Iteration:  3785charge 0 multiplicity 1
 C         0.147203         0.147671        -0.208562
 C         1.493690        -0.208424         0.350177
 C         1.218243        -0.909848         1.703660
 C         2.547528        -1.085902         2.459561
 C         3.783272        -0.883025         1.464753
 C         3.605230         0.318656         0.624906
 O         2.337330         0.930363         0.516183
 C         3.607974        -0.978473        -0.020508
 O         2.225859        -1.033632        -0.536085
 H        -0.249889         0.998089         0.417635
 H         0.098492         0.585201        -1.211846
 H        -0.586104        -0.647823        -0.092530
 H         0.475126        -0.238806         2.358865
 H         0.637169        -1.816678         1.509244
 H         2.617312        -0.491875         3.367965
 H         2.749485        -2.087683         2.763739
 H         4.789292        -1.018268         1.952723
 H         4.464744         1.059991         0.531652
 H         4.218022        -1.554713        -0.691647
