19
Iteration:   971
 C         0.190584         0.173240        -0.429245
 C         1.400439        -0.277854         0.396011
 C         1.189788        -1.130653         1.635002
 C         2.657915        -1.252620         2.332337
 C         3.857735        -0.850393         1.418579
 C         3.539923         0.510930         0.666971
 O         2.228456         0.893494         0.929585
 C         3.557074        -0.753618        -0.029718
 O         2.269786        -0.973942        -0.550203
 H        -0.512408         0.776563         0.152137
 H         0.577131         0.743199        -1.264717
 H        -0.302219        -0.745174        -0.662428
 H         0.462688        -0.767111         2.334241
 H         1.026967        -2.146904         1.199060
 H         2.643874        -0.474043         3.152223
 H         2.993679        -2.298989         2.735896
 H         4.834822        -1.205421         1.559374
 H         4.245474         1.392619         0.586261
 H         4.389929        -1.068513        -0.647851
