19
Iteration:  2988charge 0 multiplicity 1
 C         0.086747         0.136777        -0.205199
 C         1.438685        -0.153201         0.326354
 C         1.278724        -0.814821         1.684199
 C         2.597308        -1.291876         2.347079
 C         3.778241        -0.817699         1.512237
 C         3.616898         0.450030         0.741598
 O         2.310755         0.945187         0.471285
 C         3.583377        -0.929142         0.019445
 O         2.276375        -1.111711        -0.485849
 H        -0.689735         0.337008         0.548884
 H         0.092886         0.720078        -1.045270
 H        -0.340996        -0.806049        -0.618351
 H         0.572246        -0.364953         2.356722
 H         0.844488        -1.807578         1.602838
 H         2.705625        -1.016390         3.456182
 H         2.503581        -2.326910         2.232255
 H         4.702141        -1.215650         1.888469
 H         4.281414         1.258430         0.337751
 H         4.437921        -1.124383        -0.554778
