19
Iteration:  3645charge 0 multiplicity 1
 C         0.149835         0.186719        -0.295946
 C         1.391215        -0.276851         0.429877
 C         1.208969        -0.730785         1.830533
 C         2.588901        -1.414095         2.225513
 C         3.748181        -0.751933         1.551747
 C         3.609534         0.425758         0.615487
 O         2.304714         0.942345         0.448075
 C         3.632882        -0.835003        -0.031499
 O         2.256013        -1.203110        -0.402699
 H        -0.297154         0.985967         0.277804
 H         0.354018         0.396823        -1.322264
 H        -0.370369        -0.747050        -0.146875
 H         1.053583         0.234190         2.357257
 H         0.365200        -1.252964         2.051462
 H         2.575448        -1.352993         3.338096
 H         2.649740        -2.497278         1.969685
 H         4.817893        -0.774210         1.935224
 H         4.529231         1.141880         0.629625
 H         4.452430        -1.267747        -0.645150
