19
Iteration:  3223charge 0 multiplicity 1
 C         0.082485         0.131763        -0.223784
 C         1.497951        -0.252680         0.315922
 C         1.257296        -0.897373         1.711106
 C         2.548245        -1.161014         2.412530
 C         3.764725        -0.840737         1.526002
 C         3.650805         0.416826         0.686083
 O         2.321669         0.880935         0.502471
 C         3.626975        -0.930544        -0.033894
 O         2.209480        -1.024622        -0.565826
 H        -0.503747         0.505781         0.672328
 H         0.181892         0.850890        -0.999943
 H        -0.412531        -0.807916        -0.582845
 H         0.821734        -0.103285         2.410060
 H         0.476470        -1.704763         1.755174
 H         2.730208        -0.507439         3.279801
 H         2.487302        -2.210494         2.872731
 H         4.755563        -0.904301         1.976059
 H         4.564131         1.073280         0.659489
 H         4.319234        -1.544286        -0.685354
