19
Iteration:   670
 C         0.118134         0.118537        -0.255303
 C         1.464019        -0.208627         0.334195
 C         1.238583        -1.049513         1.676977
 C         2.618163        -1.551695         2.150298
 C         3.744945        -0.640562         1.567353
 C         3.575452         0.584375         0.725068
 O         2.206771         0.932787         0.640237
 C         3.661277        -0.753002        -0.000495
 O         2.301854        -1.062951        -0.483411
 H        -0.363102         0.773198         0.538240
 H         0.292456         0.696408        -1.145919
 H        -0.517489        -0.737111        -0.353632
 H         0.861611        -0.205123         2.304258
 H         0.699911        -1.977722         1.608928
 H         2.674379        -1.770248         3.254901
 H         2.776377        -2.518943         1.505638
 H         4.649704        -0.679025         2.013183
 H         4.175583         1.539677         0.949281
 H         4.622588        -1.084759        -0.478379
