19
Iteration:  2423charge 0 multiplicity 1
 C         0.093093         0.130289        -0.232367
 C         1.453764        -0.197160         0.352775
 C         1.261793        -0.882978         1.698045
 C         2.645500        -1.367927         2.338213
 C         3.749624        -0.845186         1.460832
 C         3.577713         0.448663         0.794421
 O         2.336182         1.043330         0.458255
 C         3.630207        -0.885101        -0.017548
 O         2.237438        -1.062245        -0.447710
 H        -0.739513         0.522882         0.394417
 H         0.241195         0.733744        -1.225632
 H        -0.294699        -0.872982        -0.394983
 H         0.518530        -0.309619         2.367486
 H         0.755477        -1.856110         1.337157
 H         2.720602        -1.111239         3.420619
 H         2.540915        -2.524568         2.343051
 H         4.737600        -1.066862         1.869288
 H         4.268916         1.301706         0.787306
 H         4.197112        -1.367828        -0.719090
