19
Iteration:   969
 C         0.185687         0.170598        -0.437605
 C         1.400260        -0.274801         0.391933
 C         1.204265        -1.120945         1.655658
 C         2.652109        -1.265427         2.350100
 C         3.870011        -0.851424         1.421752
 C         3.538766         0.528967         0.673042
 O         2.229605         0.882250         0.927330
 C         3.553853        -0.758848        -0.032547
 O         2.263389        -0.967720        -0.576919
 H        -0.526772         0.816912         0.132759
 H         0.540623         0.761890        -1.269805
 H        -0.255815        -0.784805        -0.682845
 H         0.410033        -0.831059         2.322764
 H         0.920910        -2.078461         1.285741
 H         2.618586        -0.525005         3.211455
 H         3.038612        -2.258356         2.720863
 H         4.855036        -1.227938         1.580788
 H         4.256815         1.408078         0.573765
 H         4.448259        -1.103631        -0.657432
