19
Iteration:  3136
 C         0.215799         0.052377        -0.346926
 C         1.446138        -0.244510         0.404468
 C         1.242052        -0.738579         1.807392
 C         2.584004        -1.369835         2.279775
 C         3.736524        -0.767227         1.462034
 C         3.591250         0.423897         0.671998
 O         2.276081         0.950738         0.566762
 C         3.612706        -0.854762        -0.029364
 O         2.240242        -1.138716        -0.433698
 H        -0.238422         0.956790         0.098431
 H         0.334627         0.356043        -1.360103
 H        -0.465986        -0.809858        -0.390758
 H         1.145678         0.235302         2.433838
 H         0.279525        -1.247264         2.050558
 H         2.879357        -1.254285         3.285581
 H         2.555256        -2.471349         2.109589
 H         4.707446        -0.810857         1.909389
 H         4.366804         1.260172         0.663425
 H         4.091393        -1.282664        -0.837359
