19
Iteration:  3150
 C         0.261370         0.096947        -0.457959
 C         1.411453        -0.256536         0.438239
 C         1.262766        -0.735155         1.945686
 C         2.608367        -1.420779         2.177897
 C         3.771135        -0.785133         1.508520
 C         3.526417         0.487727         0.642117
 O         2.277063         1.054037         0.556262
 C         3.563838        -0.919857        -0.115247
 O         2.202674        -1.178558        -0.323444
 H        -0.483275         0.756928         0.026067
 H         0.818117         0.384436        -1.313004
 H        -0.360218        -0.816816        -0.627519
 H         1.074177         0.223451         2.585596
 H         0.514066        -1.469874         2.026731
 H         2.658356        -1.340728         3.273075
 H         2.637390        -2.470377         1.947504
 H         4.777118        -0.916130         1.968800
 H         4.350831         1.147001         0.533220
 H         4.525448        -1.166236        -0.729054
