19
Iteration:   153charge 0 multiplicity 1
 C         0.126133        -0.038917        -0.356754
 C         1.465717        -0.088459         0.383143
 C         1.425084        -0.892446         1.678690
 C         2.635583        -1.616720         2.304485
 C         3.768827        -0.908626         1.467068
 C         3.502898         0.479563         0.876888
 O         2.218937         1.104164         0.586963
 C         3.546528        -0.726530        -0.027570
 O         2.263813        -0.969272        -0.498196
 H        -0.643721         0.610931        -0.040346
 H         0.289372         0.347258        -1.286412
 H        -0.346353        -0.920690        -0.386566
 H         1.065242        -0.165802         2.413518
 H         0.549876        -1.544709         1.622763
 H         2.653534        -1.540043         3.413768
 H         2.673894        -2.648719         2.076629
 H         4.726338        -1.040660         1.841578
 H         4.366423         1.230737         0.859053
 H         4.350002        -1.023987        -0.760702
