19
Iteration:  3580
 C         0.174172         0.061449        -0.342831
 C         1.432575        -0.186788         0.404983
 C         1.241477        -0.801628         1.827664
 C         2.619844        -1.267767         2.354532
 C         3.764007        -0.885993         1.452351
 C         3.639494         0.366604         0.595734
 O         2.276733         1.046566         0.524034
 C         3.542979        -0.918412        -0.009906
 O         2.230005        -1.059956        -0.408028
 H        -0.672737         0.627163         0.071840
 H         0.460547         0.546695        -1.247913
 H        -0.310263        -0.826454        -0.759638
 H         0.726511        -0.094752         2.515887
 H         0.704800        -1.748241         1.733137
 H         2.888314        -1.008417         3.423171
 H         2.506164        -2.375671         2.349499
 H         4.862662        -1.063567         1.722520
 H         4.497724         1.121520         0.616625
 H         4.310029        -1.422031        -0.586785
