19
Iteration:  1728
 C         0.189265         0.267539        -0.297224
 C         1.412959        -0.243037         0.352986
 C         1.239791        -1.148306         1.632098
 C         2.664052        -1.226033         2.415827
 C         3.788842        -0.811039         1.486152
 C         3.580246         0.440373         0.741552
 O         2.219254         0.912846         0.674533
 C         3.587645        -0.827944        -0.124170
 O         2.272685        -1.042016        -0.507608
 H        -0.360161         0.810896         0.469429
 H         0.285766         0.842299        -1.192635
 H        -0.576352        -0.432640        -0.655224
 H         0.408210        -0.782814         2.243317
 H         0.952619        -2.161454         1.291248
 H         2.523134        -0.533220         3.270313
 H         2.733373        -2.246924         2.900173
 H         4.860010        -0.946475         1.725331
 H         4.356254         1.218837         0.590757
 H         4.450835        -1.176436        -0.715270
