19
Iteration:  4226
 C         0.288827         0.360203        -0.339198
 C         1.406006        -0.322755         0.391892
 C         1.283820        -0.924704         1.739777
 C         2.663828        -1.113011         2.543550
 C         3.692713        -0.823081         1.482495
 C         3.603350         0.398935         0.580667
 O         2.276743         0.865414         0.455687
 C         3.500156        -0.952713        -0.030076
 O         2.184712        -1.193963        -0.412437
 H        -0.284431         0.991687         0.342079
 H         0.746474         1.051789        -1.125471
 H        -0.402559        -0.266027        -0.909824
 H         0.640135        -0.419820         2.477823
 H         0.850508        -1.878701         1.513093
 H         2.874889        -0.323586         3.360244
 H         2.620013        -2.172127         2.941737
 H         4.765989        -1.029288         1.658651
 H         4.289073         1.235477         0.372960
 H         4.304666        -1.473991        -0.669758
