19
Iteration:  3125
 C         0.107019         0.088154        -0.311298
 C         1.470975        -0.215884         0.322403
 C         1.290303        -0.724580         1.794389
 C         2.568679        -1.368222         2.371033
 C         3.762986        -0.897335         1.503578
 C         3.622758         0.520513         0.622271
 O         2.244555         0.915164         0.534426
 C         3.606200        -0.869576        -0.012031
 O         2.278240        -1.096406        -0.452401
 H        -0.356421         0.907280         0.254324
 H         0.292961         0.270513        -1.352384
 H        -0.562684        -0.750905        -0.097022
 H         0.904658         0.218870         2.323710
 H         0.543696        -1.562798         1.781611
 H         2.619082        -1.198855         3.416248
 H         2.497914        -2.466862         2.188614
 H         4.768416        -1.124796         1.807591
 H         4.397909         1.354193         0.495838
 H         4.442091        -1.199376        -0.533979
