19
Iteration:  4359
 C         0.183797         0.170235        -0.342292
 C         1.519548        -0.164029         0.437237
 C         1.157583        -0.765427         1.756050
 C         2.606401        -1.228674         2.273227
 C         3.819699        -0.842637         1.484277
 C         3.608531         0.381254         0.576103
 O         2.297153         0.995507         0.497883
 C         3.541555        -0.979149        -0.009648
 O         2.218389        -1.189798        -0.281140
 H        -0.271731         0.987793         0.239651
 H         0.523747         0.548785        -1.352570
 H        -0.509386        -0.686130        -0.421906
 H         0.607195        -0.101273         2.401745
 H         0.489317        -1.692926         1.546492
 H         2.917780        -0.927890         3.276421
 H         2.441312        -2.330131         2.425227
 H         4.799215        -1.137511         1.857759
 H         4.335541         1.087529         0.157674
 H         4.232123        -1.552644        -0.609335
