19
Iteration:  2917
 C         0.146934         0.048079        -0.507326
 C         1.457539        -0.161633         0.429570
 C         1.309010        -0.748209         1.803232
 C         2.595568        -1.488962         2.163872
 C         3.788409        -0.783753         1.402716
 C         3.563636         0.472572         0.649974
 O         2.283098         1.007993         0.668877
 C         3.571971        -0.828120        -0.033148
 O         2.217571        -1.142254        -0.217218
 H        -0.421608         0.965206        -0.295121
 H         0.615695        -0.030577        -1.597383
 H        -0.649709        -0.706628        -0.354169
 H         1.000773         0.034580         2.541400
 H         0.446142        -1.405824         1.814883
 H         2.718280        -1.277562         3.210488
 H         2.695208        -2.635052         1.965392
 H         4.826810        -0.810240         1.856963
 H         4.413826         1.094578         0.715351
 H         4.203996        -1.251747        -0.895111
