19
Iteration:  4233charge 0 multiplicity 1
 C         0.192723         0.340900        -0.362359
 C         1.444339        -0.277042         0.342715
 C         1.298482        -0.893436         1.796158
 C         2.684801        -1.068099         2.560329
 C         3.700683        -0.865990         1.471288
 C         3.591643         0.385313         0.618387
 O         2.316246         0.848489         0.468734
 C         3.486201        -0.969790        -0.008143
 O         2.196113        -1.180155        -0.481635
 H        -0.310524         1.003311         0.391213
 H         0.757148         0.894018        -1.001680
 H        -0.399535        -0.442385        -0.888447
 H         0.370060        -0.415453         2.414556
 H         0.816424        -1.862573         1.526513
 H         2.873184        -0.316165         3.373144
 H         2.900903        -2.079624         2.781365
 H         4.647037        -1.314895         1.815450
 H         4.169887         1.304185         0.545009
 H         4.246764        -1.350887        -0.691380
