19
Iteration:  2960
 C         0.166485         0.135080        -0.267918
 C         1.432342        -0.284325         0.365494
 C         1.304117        -0.781016         1.810977
 C         2.565183        -1.498866         2.291025
 C         3.680250        -0.785735         1.477900
 C         3.558754         0.513364         0.676016
 O         2.231544         0.989364         0.433947
 C         3.705158        -0.886615        -0.060645
 O         2.299348        -1.094470        -0.373536
 H        -0.460086         0.834643         0.293474
 H         0.430267         0.637810        -1.302303
 H        -0.554956        -0.660824        -0.466156
 H         1.349184         0.147358         2.479345
 H         0.326111        -1.327095         2.109275
 H         2.711202        -1.376825         3.337475
 H         2.495191        -2.646462         2.078733
 H         4.677055        -0.842683         2.033205
 H         4.167209         1.379059         0.744993
 H         4.476114        -1.462224        -0.710220
