19
Iteration:   374
 C         0.186513        -0.036638        -0.329307
 C         1.452688        -0.253687         0.426072
 C         1.242182        -0.901199         1.772144
 C         2.621105        -1.481830         2.220665
 C         3.766885        -0.952798         1.431540
 C         3.524560         0.505707         0.792622
 O         2.195963         0.959809         0.710327
 C         3.615679        -0.655096        -0.101262
 O         2.318640        -0.891346        -0.538021
 H        -0.631499         0.402776         0.214899
 H         0.422934         0.706113        -1.165173
 H        -0.181946        -0.933914        -0.912255
 H         0.990278        -0.006186         2.462490
 H         0.334894        -1.585935         1.754615
 H         2.757444        -1.201772         3.399142
 H         2.741166        -2.622434         2.216563
 H         4.936673        -1.099112         1.802885
 H         4.190385         1.344110         0.862668
 H         4.347427        -0.842591        -0.856402
