19
Iteration:  2867
 C         0.110319         0.271066        -0.240990
 C         1.484351        -0.249849         0.262136
 C         1.314483        -1.012379         1.651004
 C         2.643149        -1.215903         2.504878
 C         3.722821        -0.826059         1.501085
 C         3.590049         0.430726         0.649102
 O         2.238067         0.922715         0.547280
 C         3.610811        -0.928939         0.043415
 O         2.261595        -1.054725        -0.576234
 H        -0.362980         0.769063         0.601154
 H         0.060678         0.890864        -1.124720
 H        -0.535931        -0.583264        -0.298545
 H         0.659617        -0.428350         2.321218
 H         0.698267        -1.968996         1.500555
 H         2.616720        -0.533710         3.428523
 H         2.924807        -2.171379         2.824325
 H         4.749844        -1.136893         1.816213
 H         4.308116         1.239621         0.609484
 H         4.234875        -1.643701        -0.588706
