19
Iteration:  4717
 C         0.210843         0.198814        -0.427870
 C         1.415284        -0.159276         0.482608
 C         1.269170        -0.821532         1.838820
 C         2.589508        -1.370103         2.477532
 C         3.814371        -0.864191         1.465086
 C         3.626739         0.504430         0.645252
 O         2.336330         0.998033         0.432231
 C         3.517741        -0.981158        -0.102912
 O         2.143021        -1.153212        -0.372637
 H        -0.231990         1.196930        -0.241478
 H         0.630615         0.360570        -1.407893
 H        -0.465675        -0.678381        -0.461757
 H         0.799218        -0.155008         2.669461
 H         0.630817        -1.538163         1.506683
 H         2.824880        -1.067344         3.532072
 H         2.582452        -2.379127         2.492298
 H         4.827025        -1.164551         1.794035
 H         4.394007         1.271026         0.513976
 H         4.070297        -1.501544        -0.807416
