19
Iteration:  2651
 C         0.135012         0.155466        -0.298600
 C         1.424551        -0.160004         0.395524
 C         1.306610        -0.937981         1.764410
 C         2.589143        -1.305286         2.343514
 C         3.750219        -0.820968         1.491798
 C         3.630362         0.499319         0.651417
 O         2.244106         0.955802         0.584522
 C         3.590861        -0.899489        -0.012647
 O         2.276216        -1.111297        -0.530427
 H        -0.630933         0.624779         0.394071
 H         0.388523         0.998814        -1.008273
 H        -0.183867        -0.813719        -0.732558
 H         0.746429        -0.291656         2.403697
 H         0.626147        -1.785365         1.634481
 H         2.672480        -0.856211         3.334125
 H         2.602517        -2.436173         2.604140
 H         4.754542        -1.229183         1.769512
 H         4.307833         1.313576         0.452119
 H         4.328984        -1.462289        -0.660456
