19
Iteration:  3203charge 0 multiplicity 1
 C         0.167452         0.161599        -0.299768
 C         1.506351        -0.250795         0.384042
 C         1.248299        -0.781014         1.802859
 C         2.606883        -1.267995         2.390721
 C         3.736364        -0.840630         1.487435
 C         3.579220         0.452339         0.589473
 O         2.274901         0.962497         0.538099
 C         3.539202        -0.925859        -0.024198
 O         2.297492        -1.172103        -0.478660
 H        -0.602061         0.447842         0.470521
 H         0.339263         0.935803        -0.999200
 H        -0.281342        -0.683831        -0.874573
 H         0.612641         0.076305         2.375806
 H         0.397579        -1.472838         1.681586
 H         2.676000        -1.083584         3.444210
 H         2.671784        -2.403936         2.401560
 H         4.742287        -1.112576         1.867270
 H         4.303338         1.267414         0.462667
 H         4.438831        -1.246777        -0.666014
