19
Iteration:  2147charge 0 multiplicity 1
 C         0.202607         0.327930        -0.311183
 C         1.421085        -0.244456         0.398431
 C         1.256567        -1.219918         1.628403
 C         2.597979        -1.071637         2.391076
 C         3.800668        -0.835735         1.400574
 C         3.578893         0.437628         0.715157
 O         2.255728         0.831963         0.746107
 C         3.578939        -0.855723        -0.066325
 O         2.254621        -1.063994        -0.500418
 H        -0.386587         0.997519         0.287560
 H         0.476790         0.774717        -1.222349
 H        -0.542966        -0.388842        -0.564447
 H         0.309083        -0.971173         2.096224
 H         1.116403        -2.302964         1.244448
 H         2.493743        -0.202565         3.017370
 H         2.716178        -1.931483         3.066568
 H         4.819004        -1.033543         1.675785
 H         4.342485         1.228148         0.550136
 H         4.307904        -0.976161        -0.865347
