19
Iteration:  4779
 C         0.165540         0.292653        -0.309243
 C         1.453285        -0.157738         0.378880
 C         1.302008        -0.796846         1.875569
 C         2.586176        -1.261876         2.417000
 C         3.687913        -0.825663         1.516250
 C         3.580461         0.384037         0.617166
 O         2.324594         0.933635         0.450621
 C         3.604801        -1.022433        -0.022616
 O         2.260250        -1.185244        -0.529617
 H        -0.482747         0.636549         0.557815
 H         0.132237         0.955030        -1.138525
 H        -0.430959        -0.591942        -0.652322
 H         0.715487        -0.130996         2.492035
 H         0.613671        -1.726928         1.724795
 H         2.710632        -0.762020         3.370905
 H         2.738354        -2.443100         2.610483
 H         4.544278        -1.032303         2.130189
 H         4.319062         1.127659         0.416388
 H         4.283449        -1.409850        -0.847833
