19
Iteration:   610charge 0 multiplicity 1
 C         0.186075        -0.026766        -0.403714
 C         1.442013        -0.279438         0.416299
 C         1.281944        -0.951451         1.795745
 C         2.644377        -1.415408         2.175332
 C         3.744595        -0.789799         1.488640
 C         3.556188         0.507968         0.819728
 O         2.178665         0.911907         0.778604
 C         3.602898        -0.718548        -0.039538
 O         2.288711        -0.888159        -0.606950
 H        -0.541308         0.625318         0.097940
 H         0.447837         0.568648        -1.330715
 H        -0.323674        -0.873591        -0.962177
 H         0.991658        -0.121547         2.403180
 H         0.511498        -1.595108         2.204627
 H         2.738396        -1.443294         3.271479
 H         2.669622        -2.503838         1.899925
 H         4.821834        -1.199636         1.679020
 H         4.370646         1.277194         0.776710
 H         4.393206        -1.079932        -0.727076
