19
Iteration:  2105
 C         0.160690         0.109780        -0.369996
 C         1.431342        -0.252993         0.351948
 C         1.285649        -1.019768         1.686966
 C         2.626739        -1.228412         2.456582
 C         3.733545        -0.842919         1.450682
 C         3.585691         0.470007         0.728122
 O         2.308449         0.913013         0.778333
 C         3.533889        -0.908430        -0.079555
 O         2.236487        -0.919386        -0.603473
 H        -0.343113         0.834251         0.308241
 H         0.418255         0.511728        -1.315918
 H        -0.303390        -0.883537        -0.697820
 H         0.529269        -0.677952         2.386387
 H         0.757500        -2.019546         1.307497
 H         2.793315        -0.471484         3.313733
 H         2.747202        -2.202838         2.834073
 H         4.743122        -1.107236         1.612877
 H         4.330204         1.309577         0.575241
 H         4.374341        -1.169042        -0.731699
