19
Iteration:  1245charge 0 multiplicity 1
 C         0.175406         0.307137        -0.313168
 C         1.449603        -0.313874         0.364144
 C         1.324581        -1.170895         1.635709
 C         2.631854        -1.281731         2.372239
 C         3.745914        -0.752197         1.519286
 C         3.591535         0.541533         0.620588
 O         2.226463         0.922631         0.752450
 C         3.550988        -0.835121        -0.008970
 O         2.227741        -1.056462        -0.555040
 H        -0.366965         1.064879         0.303620
 H         0.482408         0.937523        -1.193288
 H        -0.332522        -0.648725        -0.675545
 H         0.466325        -0.905357         2.334944
 H         0.947501        -2.223208         1.367580
 H         2.515500        -0.805979         3.397370
 H         2.918945        -2.372755         2.561749
 H         4.822522        -0.917503         1.769065
 H         4.412016         1.250389         0.466261
 H         4.282565        -1.229163        -0.680980
