19
Iteration:  4904
 C         0.141147         0.196236        -0.228942
 C         1.437309        -0.224828         0.334110
 C         1.193947        -0.970734         1.736083
 C         2.550443        -1.166385         2.404915
 C         3.755267        -0.701910         1.490075
 C         3.714182         0.403325         0.585631
 O         2.432082         1.000628         0.531965
 C         3.532497        -0.984868         0.005139
 O         2.177909        -1.185237        -0.475034
 H        -0.028671         1.150542         0.240239
 H         0.209564         0.565628        -1.311590
 H        -0.636883        -0.552765        -0.113831
 H         0.465084        -0.429126         2.506969
 H         0.662464        -1.856898         1.618559
 H         2.718618        -0.696658         3.422079
 H         2.578915        -2.223801         2.479108
 H         4.695507        -1.186785         1.872220
 H         4.448519         1.100087         0.243692
 H         4.291215        -1.581219        -0.711468
