19
Iteration:  3169charge 0 multiplicity 1
 C         0.210431         0.158792        -0.543525
 C         1.495973        -0.135451         0.473853
 C         1.225935        -0.771709         1.845458
 C         2.704604        -1.468523         2.274759
 C         3.853799        -0.803423         1.492946
 C         3.524501         0.524618         0.594848
 O         2.231875         0.937214         0.506971
 C         3.470849        -0.888423         0.006773
 O         2.203564        -1.169182        -0.214790
 H        -0.670865         0.704424        -0.079761
 H         0.599515         0.726894        -1.355311
 H        -0.106635        -0.843917        -0.900152
 H         1.251764         0.096256         2.650464
 H         0.284420        -1.371999         1.680321
 H         2.900718        -1.496752         3.316196
 H         2.615951        -2.498103         1.815588
 H         4.872686        -1.024297         1.760649
 H         4.377449         1.293923         0.531881
 H         4.128011        -1.320740        -0.740572
