19
Iteration:  3756charge 0 multiplicity 1
 C         0.165059         0.277412        -0.281874
 C         1.444756        -0.191192         0.379266
 C         1.353749        -1.141613         1.655029
 C         2.579717        -1.009257         2.553285
 C         3.741993        -0.846456         1.485388
 C         3.688765         0.363880         0.611355
 O         2.333818         0.973899         0.521662
 C         3.486346        -0.970393        -0.033139
 O         2.158345        -1.119777        -0.498018
 H        -0.333573         0.965714         0.338397
 H         0.304411         0.959727        -1.160239
 H        -0.621878        -0.409336        -0.477627
 H         0.465452        -0.881996         2.236884
 H         1.137513        -2.114401         1.287475
 H         2.427333        -0.243235         3.362540
 H         2.970324        -1.947746         3.023125
 H         4.726565        -1.258951         1.717409
 H         4.474788         1.075177         0.481128
 H         4.108005        -1.655003        -0.538786
