19
Iteration:  2288
 C         0.086080         0.202232        -0.265039
 C         1.445951        -0.216868         0.401973
 C         1.228382        -0.890435         1.722671
 C         2.607498        -1.394224         2.298994
 C         3.724502        -0.805379         1.477230
 C         3.581835         0.481549         0.769576
 O         2.275744         0.933770         0.487636
 C         3.684283        -0.827196        -0.043964
 O         2.289499        -1.138672        -0.463010
 H        -0.544549         0.697872         0.503122
 H         0.308339         0.805191        -1.120538
 H        -0.533273        -0.672823        -0.607778
 H         0.903331        -0.082769         2.316169
 H         0.513893        -1.663054         1.812834
 H         2.758871        -1.230614         3.322171
 H         2.701580        -2.553816         2.132753
 H         4.712334        -0.884251         1.861650
 H         4.334327         1.345033         0.743115
 H         4.557744        -1.135853        -0.615002
