19
Iteration:  2167charge 0 multiplicity 1
 C         0.196095         0.254545        -0.217848
 C         1.438406        -0.293420         0.353215
 C         1.288983        -1.158583         1.575824
 C         2.558262        -1.239808         2.416544
 C         3.757431        -0.730508         1.516198
 C         3.593122         0.479103         0.597662
 O         2.262498         1.001615         0.662804
 C         3.602456        -0.890073         0.028164
 O         2.231559        -1.075952        -0.589665
 H        -0.198136         0.839872         0.602346
 H         0.443860         0.946265        -1.045457
 H        -0.633587        -0.377270        -0.335727
 H         0.547521        -0.912741         2.331475
 H         1.056390        -2.086058         1.120014
 H         2.429390        -0.642641         3.269589
 H         2.774074        -2.319215         2.827849
 H         4.755761        -1.081602         1.890049
 H         4.365676         1.221217         0.497771
 H         4.393320        -1.505078        -0.486959
