19
Iteration:    24
 C        -0.048631         0.057521        -0.250248
 C         1.416961        -0.178995         0.318415
 C         1.235575        -1.037370         1.613597
 C         2.584821        -1.224655         2.342123
 C         3.839422        -0.965651         1.385686
 C         3.673150         0.447405         0.795051
 O         2.297110         0.935501         0.796094
 C         3.660281        -0.741289        -0.092311
 O         2.305202        -0.973353        -0.577822
 H        -0.630318         0.531410         0.610010
 H        -0.063895         0.681575        -1.115178
 H        -0.484029        -0.907312        -0.663898
 H         0.570641        -0.481139         2.297247
 H         0.793371        -1.994584         1.400563
 H         2.677747        -0.479447         3.105440
 H         2.617884        -2.256266         2.770389
 H         4.758541        -1.184701         1.761527
 H         4.429153         1.244797         0.899464
 H         4.418775        -0.884679        -0.822266
