19
Iteration:  3848
 C         0.250581         0.182648        -0.457863
 C         1.412135        -0.158057         0.496974
 C         1.253978        -0.822636         1.916061
 C         2.638421        -1.421561         2.266517
 C         3.742761        -0.789399         1.482376
 C         3.580216         0.500035         0.535349
 O         2.347229         0.978536         0.446041
 C         3.550889        -0.917013         0.016717
 O         2.135636        -1.179342        -0.279070
 H        -0.398420         1.063684        -0.128577
 H         0.735514         0.582584        -1.366506
 H        -0.421062        -0.699457        -0.625203
 H         1.036145        -0.096122         2.631969
 H         0.319303        -1.453789         1.903375
 H         2.859546        -1.437185         3.351902
 H         2.465756        -2.505615         2.033650
 H         4.812689        -0.930419         1.752072
 H         4.431854         1.220237         0.284409
 H         4.339394        -1.474013        -0.493204
