19
Iteration:  4248
 C         0.152185         0.239426        -0.354663
 C         1.423808        -0.203272         0.357980
 C         1.266570        -0.898650         1.800596
 C         2.637448        -1.033307         2.494309
 C         3.771418        -0.903664         1.506231
 C         3.668393         0.323801         0.658502
 O         2.311098         0.927058         0.541193
 C         3.527126        -1.035817        -0.031069
 O         2.191508        -1.120529        -0.576466
 H        -0.520055         0.803877         0.278665
 H         0.166385         0.853787        -1.315115
 H        -0.445759        -0.626737        -0.630452
 H         0.639199        -0.193164         2.414888
 H         0.818145        -1.875624         1.745693
 H         2.797025        -0.209744         3.299842
 H         2.512136        -1.989830         3.081293
 H         4.831830        -1.093547         1.747563
 H         4.519401         0.999245         0.508511
 H         4.334954        -1.495954        -0.671024
