19
Iteration:  3070charge 0 multiplicity 1
 C         0.190193         0.240977        -0.273074
 C         1.412517        -0.271382         0.400500
 C         1.226783        -1.106395         1.662378
 C         2.611086        -1.058895         2.451906
 C         3.779518        -0.849273         1.472120
 C         3.672445         0.419021         0.547424
 O         2.233738         0.953801         0.665754
 C         3.524267        -0.907588        -0.011507
 O         2.251361        -1.110607        -0.543291
 H        -0.014027         1.147346         0.265129
 H         0.588047         0.674177        -1.213309
 H        -0.569952        -0.492039        -0.473407
 H         0.391516        -0.720397         2.325341
 H         1.012687        -2.191433         1.449651
 H         2.580700        -0.334099         3.215760
 H         2.733065        -2.032772         2.982449
 H         4.737206        -1.127985         1.893036
 H         4.448996         1.122509         0.204391
 H         4.382074        -1.192243        -0.522590
