19
Iteration:  4178
 C         0.141030         0.116166        -0.352837
 C         1.495802        -0.203409         0.342304
 C         1.256902        -0.801074         1.768684
 C         2.555331        -1.159364         2.440166
 C         3.815115        -0.905872         1.477894
 C         3.685896         0.373717         0.609810
 O         2.350271         0.965968         0.563092
 C         3.514181        -0.954347        -0.060156
 O         2.164332        -1.110238        -0.424330
 H        -0.376316         0.999883         0.062314
 H         0.247881         0.249747        -1.399126
 H        -0.455046        -0.814818        -0.287644
 H         0.712157         0.013478         2.403850
 H         0.528668        -1.623719         1.634993
 H         2.780483        -0.573089         3.364805
 H         2.642262        -2.225640         2.663284
 H         4.771455        -1.213315         1.874417
 H         4.260009         1.289672         0.550790
 H         4.145019        -1.440418        -0.715389
