19
Iteration:  1752
 C         0.182078         0.056879        -0.322924
 C         1.455634        -0.252327         0.385668
 C         1.236560        -0.943806         1.714469
 C         2.629850        -1.335167         2.327115
 C         3.785080        -0.830564         1.464359
 C         3.589051         0.508932         0.693272
 O         2.297192         0.958383         0.774489
 C         3.548115        -0.860209        -0.007598
 O         2.239103        -0.921810        -0.590465
 H        -0.653896         0.651605         0.073741
 H         0.382758         0.369868        -1.311500
 H        -0.352937        -0.884900        -0.622513
 H         0.598916        -0.313070         2.172868
 H         0.680679        -1.888539         1.507708
 H         2.604353        -0.992778         3.383284
 H         2.583919        -2.408943         2.413708
 H         4.779038        -1.082677         1.706631
 H         4.364117         1.179622         0.437928
 H         4.376789        -1.384272        -0.667569
