19
Iteration:  3000
 C         0.064366         0.109467        -0.297689
 C         1.461022        -0.187871         0.421482
 C         1.235711        -0.958183         1.719938
 C         2.604187        -1.198918         2.386259
 C         3.765544        -0.810404         1.506448
 C         3.665675         0.444699         0.640505
 O         2.314988         0.937500         0.537617
 C         3.593607        -0.956390        -0.001451
 O         2.233602        -1.019768        -0.500321
 H        -0.636158         0.516792         0.424558
 H         0.181100         0.937144        -0.954390
 H        -0.168802        -0.854181        -0.757091
 H         0.556019        -0.326974         2.265321
 H         0.700800        -1.848886         1.266923
 H         2.698466        -0.804041         3.427555
 H         2.821885        -2.240872         2.548699
 H         4.776173        -1.063160         1.868513
 H         4.472388         1.190902         0.598132
 H         4.198739        -1.550069        -0.708265
