19
Iteration:  1654
 C         0.140891         0.053153        -0.286753
 C         1.458746        -0.148305         0.361754
 C         1.259747        -1.030611         1.642913
 C         2.631150        -1.215708         2.444184
 C         3.758856        -0.972860         1.479360
 C         3.612350         0.424549         0.792402
 O         2.273677         0.943834         0.693605
 C         3.516573        -0.817942        -0.112772
 O         2.284964        -0.898898        -0.584774
 H        -0.685505         0.680831         0.134963
 H         0.236133         0.389277        -1.317219
 H        -0.457813        -0.927951        -0.423294
 H         0.483266        -0.644015         2.274958
 H         0.881009        -2.062658         1.320869
 H         2.738342        -0.345164         3.136712
 H         2.781753        -2.173934         2.924169
 H         4.818406        -1.243332         1.596815
 H         4.336219         1.257635         0.602321
 H         4.449849        -1.204303        -0.757561
