19
Iteration:  4561
 C         0.170866         0.349711        -0.287559
 C         1.435157        -0.223483         0.356555
 C         1.244040        -1.028545         1.741559
 C         2.592532        -1.078239         2.467030
 C         3.832345        -0.782413         1.555762
 C         3.606848         0.331811         0.584676
 O         2.358064         0.917292         0.480170
 C         3.512076        -1.026636        -0.031698
 O         2.158283        -1.135618        -0.501105
 H        -0.222253         1.133640         0.349184
 H         0.615709         0.771378        -1.274853
 H        -0.547637        -0.451073        -0.428737
 H         0.526623        -0.557284         2.359753
 H         0.956462        -2.118324         1.554738
 H         2.636327        -0.188741         3.189900
 H         2.739592        -2.005920         3.032769
 H         4.774429        -1.110907         1.979401
 H         4.377753         1.132756         0.585921
 H         4.210709        -1.678493        -0.572889
