19
Iteration:  3691
 C         0.080879         0.150778        -0.369515
 C         1.441734        -0.181384         0.408378
 C         1.245268        -0.926188         1.778852
 C         2.643497        -1.160497         2.411526
 C         3.797348        -0.872797         1.491350
 C         3.659357         0.349111         0.645467
 O         2.322725         0.959804         0.570139
 C         3.543004        -0.949623        -0.070524
 O         2.209668        -1.058433        -0.472424
 H        -0.491863         0.898205         0.127933
 H         0.566054         0.627379        -1.264548
 H        -0.353160        -0.799668        -0.591148
 H         0.708890        -0.310691         2.442307
 H         0.568561        -1.769411         1.609775
 H         2.647010        -0.530111         3.316650
 H         2.684221        -2.203995         2.791880
 H         4.762914        -1.189907         1.912943
 H         4.279414         1.216716         0.435883
 H         4.235720        -1.328929        -0.807974
