19
Iteration:  1243
 C         0.178435         0.317413        -0.326691
 C         1.430085        -0.305523         0.376358
 C         1.326493        -1.185020         1.631437
 C         2.636587        -1.286048         2.367038
 C         3.743459        -0.750192         1.517626
 C         3.603268         0.536642         0.612544
 O         2.226680         0.912791         0.754148
 C         3.528540        -0.822366        -0.017456
 O         2.234688        -1.065209        -0.531005
 H        -0.334919         1.037224         0.347244
 H         0.531151         0.937777        -1.238130
 H        -0.354552        -0.610468        -0.703881
 H         0.411334        -0.898217         2.334336
 H         0.979314        -2.196505         1.322047
 H         2.470858        -0.838740         3.378240
 H         2.968224        -2.267871         2.639208
 H         4.880854        -0.904225         1.754665
 H         4.421079         1.259858         0.473224
 H         4.335466        -1.193482        -0.719416
