19
Iteration:  2818
 C         0.208409         0.198300        -0.317777
 C         1.427946        -0.270603         0.415508
 C         1.254971        -1.143245         1.645511
 C         2.597089        -0.974471         2.453120
 C         3.770316        -0.876258         1.414012
 C         3.663204         0.412872         0.636916
 O         2.287738         0.951444         0.749663
 C         3.488003        -0.955038        -0.036616
 O         2.249083        -1.052528        -0.591282
 H        -0.524540         0.662926         0.431288
 H         0.487382         1.086245        -0.929536
 H        -0.444670        -0.587156        -0.827760
 H         0.446946        -0.935820         2.326754
 H         1.131427        -2.153618         1.416561
 H         2.613306        -0.036307         2.982007
 H         2.721019        -1.790995         3.280548
 H         4.743501        -1.275229         1.584608
 H         4.296218         1.317905         0.472928
 H         4.080578        -1.426772        -0.715480
