19
Iteration:  2305charge 0 multiplicity 1
 C         0.064537         0.148428        -0.225423
 C         1.469589        -0.269313         0.267317
 C         1.229940        -0.933724         1.762843
 C         2.564537        -1.315361         2.355552
 C         3.767030        -0.819155         1.556287
 C         3.622040         0.453020         0.618153
 O         2.267416         0.955064         0.581536
 C         3.606620        -0.893102         0.033443
 O         2.356763        -0.990837        -0.593925
 H        -0.303599         0.627868         0.686155
 H         0.201104         0.869089        -1.097841
 H        -0.497472        -0.761474        -0.265211
 H         0.584333        -0.229472         2.402728
 H         0.595814        -1.810479         1.421625
 H         2.602197        -0.981705         3.460225
 H         2.632545        -2.353319         2.464842
 H         4.748526        -1.151961         1.957116
 H         4.389506         1.202720         0.530782
 H         4.232115        -1.339383        -0.704570
