19
Iteration:  4722
 C         0.223027         0.165024        -0.403436
 C         1.365741        -0.077039         0.490289
 C         1.264273        -0.799504         1.851578
 C         2.576752        -1.356884         2.485471
 C         3.769727        -0.858698         1.421023
 C         3.629854         0.474389         0.646364
 O         2.362335         1.008667         0.466143
 C         3.573418        -0.973468        -0.109281
 O         2.154982        -1.186691        -0.392695
 H        -0.427195         1.039111        -0.271155
 H         0.631458         0.397093        -1.445636
 H        -0.494306        -0.646484        -0.372555
 H         0.825673        -0.075968         2.471248
 H         0.566175        -1.745311         1.591887
 H         2.678016        -1.027947         3.562778
 H         2.630750        -2.592083         2.529849
 H         4.815548        -1.167475         1.554432
 H         4.380724         1.271806         0.508545
 H         4.339101        -1.542129        -0.800944
