19
Iteration:  3963
 C         0.295163         0.388940        -0.372192
 C         1.468066        -0.270233         0.403014
 C         1.233140        -1.004799         1.741622
 C         2.591199        -1.020133         2.423424
 C         3.757410        -0.812943         1.468989
 C         3.579637         0.367696         0.523009
 O         2.312871         0.838827         0.681621
 C         3.496069        -0.980571        -0.127768
 O         2.205149        -1.239222        -0.425663
 H         0.038051         1.264905         0.268953
 H         0.522701         0.755529        -1.378973
 H        -0.513065        -0.364156        -0.388463
 H         0.509250        -0.392003         2.401327
 H         0.733081        -1.970864         1.631537
 H         2.632564        -0.223757         3.171501
 H         2.763970        -1.873253         3.029426
 H         4.700397        -0.819012         1.994502
 H         4.078270         1.358174         0.352967
 H         4.256361        -1.416907        -0.815468
