19
Iteration:   409
 C         0.121816         0.016988        -0.334504
 C         1.452046        -0.183794         0.392219
 C         1.315911        -0.915493         1.721957
 C         2.664962        -1.650070         2.043353
 C         3.818868        -0.777482         1.549850
 C         3.499974         0.550131         0.764828
 O         2.202055         1.073126         0.599653
 C         3.553022        -0.726937         0.059893
 O         2.289497        -1.012176        -0.412204
 H        -0.639335         0.406940         0.382614
 H         0.396829         0.812041        -1.088991
 H        -0.162742        -0.961908        -0.767098
 H         1.102809        -0.153218         2.532819
 H         0.422132        -1.608518         1.649227
 H         2.762813        -1.831550         3.231787
 H         2.741962        -2.682654         1.566664
 H         4.735074        -0.955172         2.078278
 H         4.347689         1.322677         0.731119
 H         4.363987        -1.127473        -0.600082
