19
Iteration:  1001charge 0 multiplicity 1
 C         0.192143         0.290334        -0.245052
 C         1.437248        -0.233393         0.425680
 C         1.205772        -1.262445         1.592215
 C         2.611467        -1.270976         2.367052
 C         3.810176        -0.814855         1.436082
 C         3.543175         0.490194         0.772350
 O         2.212882         0.918609         0.677125
 C         3.617353        -0.716743        -0.087016
 O         2.293630        -1.079368        -0.555304
 H        -0.417068         0.917589         0.459651
 H         0.455829         0.718604        -1.213856
 H        -0.478493        -0.560573        -0.446696
 H         0.386408        -1.011033         2.262810
 H         1.212688        -2.114197         1.047792
 H         2.534992        -0.441733         3.098319
 H         2.834878        -2.206970         2.940725
 H         4.813417        -1.012157         1.760112
 H         4.161656         1.434713         0.915004
 H         4.439865        -0.994941        -0.825013
