19
Iteration:  3423charge 0 multiplicity 1
 C         0.130715         0.148660        -0.349378
 C         1.486627        -0.242990         0.414860
 C         1.312792        -0.796648         1.774178
 C         2.593362        -1.391305         2.293406
 C         3.806703        -0.778222         1.514443
 C         3.595536         0.520464         0.600732
 O         2.281270         0.998528         0.462111
 C         3.541920        -0.971278         0.069214
 O         2.175095        -1.130250        -0.327012
 H        -0.416327         0.982721         0.060332
 H         0.502151         0.543689        -1.377216
 H        -0.342518        -0.773158        -0.636212
 H         0.892463        -0.082003         2.530808
 H         0.568469        -1.498491         1.595725
 H         2.753954        -1.157404         3.353480
 H         2.864176        -2.435596         2.015041
 H         4.812079        -1.109220         1.838078
 H         4.316379         1.378126         0.236323
 H         4.189676        -1.658488        -0.497308
