19
Iteration:  3542charge 0 multiplicity 1
 C         0.103326         0.233790        -0.267668
 C         1.439807        -0.260266         0.376948
 C         1.234501        -0.954017         1.740697
 C         2.612792        -1.015116         2.452278
 C         3.789864        -0.868391         1.502987
 C         3.632509         0.393096         0.575645
 O         2.287539         0.853091         0.601259
 C         3.579172        -0.929046        -0.036659
 O         2.240691        -1.122355        -0.565056
 H        -0.336927         0.794823         0.558367
 H         0.544479         0.997191        -1.021761
 H        -0.366883        -0.638948        -0.735039
 H         0.408400        -0.404143         2.214755
 H         0.933901        -2.017646         1.491619
 H         2.652549        -0.259532         3.299320
 H         2.625931        -2.065695         2.846808
 H         4.786175        -1.081857         1.919887
 H         4.416511         1.186693         0.575302
 H         4.237517        -1.464539        -0.779414
