19
Iteration:   859charge 0 multiplicity 1
 C         0.230789         0.089646        -0.437893
 C         1.400441        -0.266515         0.393595
 C         1.301120        -0.892282         1.844940
 C         2.667385        -1.604618         2.245091
 C         3.800565        -0.847590         1.351961
 C         3.491249         0.516626         0.885913
 O         2.139398         0.986250         0.660420
 C         3.645548        -0.666085        -0.065970
 O         2.265760        -1.031193        -0.485060
 H        -0.504779         0.766900         0.011084
 H         0.596785         0.528000        -1.393758
 H        -0.440336        -0.775835        -0.750527
 H         1.117100         0.008297         2.444555
 H         0.555253        -1.611303         1.791789
 H         2.789603        -1.314508         3.361520
 H         2.778231        -2.775414         2.127979
 H         4.684342        -0.785685         2.052365
 H         4.188797         1.294041         0.914458
 H         4.360868        -0.621201        -0.890027
