19
Iteration:  2072charge 0 multiplicity 1
 C         0.107950         0.137059        -0.211038
 C         1.447779        -0.164281         0.314424
 C         1.221999        -0.950117         1.664824
 C         2.620330        -1.486139         2.250754
 C         3.717689        -0.797728         1.510961
 C         3.559950         0.548365         0.746517
 O         2.303008         1.012813         0.492969
 C         3.639393        -0.862579         0.023744
 O         2.335814        -1.092612        -0.410659
 H        -0.490771         0.613253         0.587707
 H         0.136198         0.827130        -1.051229
 H        -0.532973        -0.743109        -0.423533
 H         0.719017        -0.405668         2.444851
 H         0.557559        -1.835629         1.282668
 H         2.627877        -1.124624         3.319863
 H         2.659554        -2.536275         2.292056
 H         4.703834        -0.990229         1.932016
 H         4.267839         1.354858         0.580706
 H         4.414167        -1.029881        -0.802333
