19
Iteration:  4701
 C         0.261770         0.232672        -0.399038
 C         1.418118        -0.166894         0.381794
 C         1.263904        -0.825138         1.832588
 C         2.680303        -1.299033         2.316574
 C         3.735286        -0.840178         1.496479
 C         3.580675         0.339121         0.586354
 O         2.289790         0.963675         0.471388
 C         3.529268        -0.947868         0.062781
 O         2.158340        -1.131947        -0.344691
 H        -0.157100         1.147073         0.034658
 H         0.549964         0.478306        -1.460120
 H        -0.612634        -0.407931        -0.353013
 H         0.803156        -0.047082         2.387130
 H         0.640872        -1.831545         1.881826
 H         2.759524        -0.940308         3.329009
 H         2.755187        -2.469268         2.393233
 H         4.775174        -0.919104         1.793811
 H         4.417204         1.014027         0.418036
 H         4.320033        -1.301518        -0.696416
