19
Iteration:   582charge 0 multiplicity 1
 C         0.111604         0.086996        -0.337901
 C         1.467662        -0.152881         0.408791
 C         1.258688        -1.067784         1.597519
 C         2.649825        -1.437332         2.285654
 C         3.755929        -0.818435         1.451372
 C         3.524950         0.514192         0.777714
 O         2.225326         0.979153         0.734758
 C         3.652582        -0.704345        -0.068465
 O         2.310616        -1.022498        -0.464128
 H        -0.621677         0.438912         0.387331
 H         0.215069         0.787468        -1.168918
 H        -0.211218        -0.824720        -0.793212
 H         0.574410        -0.574998         2.364586
 H         0.684943        -2.004135         1.364358
 H         2.635571        -0.882977         3.241199
 H         2.727122        -2.539810         2.389522
 H         4.803839        -1.029005         1.663791
 H         4.248279         1.270842         0.722591
 H         4.374124        -1.040731        -0.787279
