19
Iteration:   680
 C         0.164737         0.144864        -0.241626
 C         1.441623        -0.331401         0.348037
 C         1.268057        -1.054730         1.685623
 C         2.612836        -1.482877         2.193463
 C         3.735638        -0.681415         1.584519
 C         3.515822         0.533182         0.715269
 O         2.173855         0.982973         0.686806
 C         3.666407        -0.736896        -0.013134
 O         2.357588        -1.022277        -0.572464
 H        -0.238946         0.794288         0.577422
 H         0.280087         0.683885        -1.167339
 H        -0.456587        -0.703552        -0.452410
 H         0.769508        -0.395116         2.381564
 H         0.521609        -1.747027         1.630833
 H         2.637577        -1.590858         3.314210
 H         2.812166        -2.583892         1.821394
 H         4.687132        -0.847731         1.985771
 H         4.226344         1.402032         0.606879
 H         4.455065        -1.121617        -0.709935
