19
Iteration:   713charge 0 multiplicity 1
 C         0.159597         0.119837        -0.430244
 C         1.418694        -0.220806         0.405804
 C         1.292614        -1.113621         1.678168
 C         2.689372        -1.294524         2.358164
 C         3.791968        -0.914412         1.452708
 C         3.525612         0.444039         0.873322
 O         2.171451         0.949770         0.738021
 C         3.622947        -0.654162        -0.144156
 O         2.279944        -0.952660        -0.558312
 H        -0.683126         0.644781         0.086239
 H         0.293929         0.682376        -1.333713
 H        -0.327031        -0.824096        -0.582560
 H         0.745234        -0.672718         2.475631
 H         0.981422        -2.019606         1.300532
 H         2.781970        -0.720115         3.342477
 H         2.777088        -2.437426         2.576497
 H         4.743259        -1.167265         1.748237
 H         4.271632         1.231158         1.250549
 H         4.240014        -1.114217        -0.979057
