19
Iteration:  4576
 C         0.229326         0.354715        -0.277102
 C         1.421957        -0.318978         0.357047
 C         1.212266        -0.966414         1.679189
 C         2.615114        -1.006360         2.480394
 C         3.741499        -0.850784         1.462352
 C         3.707022         0.369160         0.619115
 O         2.310551         0.873813         0.583621
 C         3.541513        -0.925642        -0.047839
 O         2.178378        -1.273988        -0.476695
 H        -0.190047         1.115682         0.432799
 H         0.389645         0.960718        -1.109812
 H        -0.624435        -0.299905        -0.566102
 H         0.564754        -0.230502         2.319291
 H         0.750779        -1.879621         1.482648
 H         2.574974        -0.127691         3.290198
 H         2.622819        -1.909503         3.093180
 H         4.767546        -1.098845         1.817560
 H         4.425636         1.067428         0.225503
 H         4.329540        -1.136506        -0.891121
