19
Iteration:  4886
 C         0.145786         0.229212        -0.283067
 C         1.503121        -0.149352         0.411521
 C         1.294642        -0.901243         1.683469
 C         2.563541        -1.196646         2.397366
 C         3.809694        -0.851670         1.509294
 C         3.613095         0.383331         0.518392
 O         2.297120         0.944681         0.499986
 C         3.568029        -1.021462         0.069234
 O         2.167105        -1.086099        -0.402224
 H        -0.290334         1.147813         0.238030
 H         0.362826         0.432033        -1.323056
 H        -0.522494        -0.620764         0.007268
 H         0.579497        -0.362314         2.247555
 H         0.758319        -1.826104         1.160681
 H         2.486970        -0.621706         3.292090
 H         2.800216        -2.230225         2.746819
 H         4.830722        -0.970694         1.790317
 H         4.478995         0.987027         0.360257
 H         4.170549        -1.632567        -0.674226
