19
Iteration:  2781charge 0 multiplicity 1
 C         0.194548         0.177287        -0.349344
 C         1.402024        -0.215946         0.386250
 C         1.238770        -0.971098         1.741982
 C         2.677936        -1.184951         2.456505
 C         3.800050        -0.859313         1.415047
 C         3.582728         0.480040         0.712791
 O         2.231025         0.906534         0.666665
 C         3.533778        -0.939818        -0.098837
 O         2.256468        -1.066584        -0.532133
 H        -0.321577         0.866726         0.311008
 H         0.497926         0.601113        -1.275569
 H        -0.377705        -0.666196        -0.660962
 H         0.601797        -0.338869         2.378106
 H         0.634219        -1.828235         1.298817
 H         2.619494        -0.457363         3.263555
 H         2.904325        -2.154213         2.833395
 H         4.837575        -1.169440         1.694053
 H         4.347320         1.203586         0.719831
 H         4.353720        -1.387743        -0.801896
