19
Iteration:   416
 C         0.181465         0.058702        -0.274197
 C         1.408995        -0.216814         0.420707
 C         1.315873        -0.908552         1.675764
 C         2.622205        -1.673310         2.045435
 C         3.801291        -0.809396         1.559556
 C         3.529192         0.571867         0.784332
 O         2.160964         1.040220         0.557905
 C         3.666737        -0.671786         0.030408
 O         2.276654        -1.057202        -0.371768
 H        -0.615319         0.426301         0.323041
 H         0.318096         0.808116        -1.044983
 H        -0.306253        -0.813902        -0.720702
 H         1.087853        -0.152928         2.458680
 H         0.514752        -1.654620         1.568412
 H         2.683961        -1.564395         3.102402
 H         2.547952        -2.608415         1.564203
 H         4.928827        -0.780394         1.998928
 H         4.279175         1.319117         0.722698
 H         4.306691        -0.965959        -0.764674
