19
Iteration:  4129charge 0 multiplicity 1
 C         0.127068         0.124942        -0.308606
 C         1.454404        -0.260053         0.333428
 C         1.256563        -0.704361         1.775432
 C         2.552144        -1.350671         2.382517
 C         3.823687        -0.809588         1.509873
 C         3.634839         0.393530         0.635230
 O         2.348483         0.977124         0.455726
 C         3.559054        -0.912114         0.021207
 O         2.177002        -1.154948        -0.416463
 H        -0.212659         1.075031         0.177024
 H         0.181870         0.339465        -1.402441
 H        -0.608119        -0.700352        -0.199901
 H         1.011385         0.235529         2.231995
 H         0.344609        -1.360580         1.950991
 H         2.615371        -0.995048         3.404799
 H         2.720586        -2.436031         2.445511
 H         4.868949        -0.927673         1.873385
 H         4.451596         1.077110         0.434217
 H         4.383501        -1.302117        -0.652157
