19
Iteration:  2248charge 0 multiplicity 1
 C         0.198259         0.089921        -0.509036
 C         1.343195        -0.225540         0.463442
 C         1.264518        -0.813650         1.946818
 C         2.646762        -1.534271         2.167377
 C         3.792267        -0.747914         1.450858
 C         3.595722         0.553997         0.652627
 O         2.273544         0.993110         0.652689
 C         3.579589        -0.859501        -0.008693
 O         2.224538        -1.091563        -0.357749
 H        -0.606551         0.796452        -0.321943
 H         0.619226         0.544030        -1.408482
 H        -0.124419        -0.860273        -0.998919
 H         1.100462         0.043186         2.667475
 H         0.247991        -1.415711         1.966349
 H         2.874104        -1.745547         3.271913
 H         2.605736        -2.453011         1.623308
 H         4.768514        -0.900142         1.939981
 H         4.369510         1.288818         0.534915
 H         4.187892        -1.330211        -0.856918
