19
Iteration:  4552charge 0 multiplicity 1
 C         0.196326         0.285182        -0.297503
 C         1.446599        -0.160026         0.382123
 C         1.289228        -1.018286         1.724733
 C         2.612424        -1.090227         2.497373
 C         3.722431        -0.811689         1.491949
 C         3.665176         0.316533         0.561118
 O         2.298614         0.928902         0.468195
 C         3.520975        -1.111885         0.046314
 O         2.185614        -1.026464        -0.472738
 H        -0.228704         1.146349         0.238404
 H         0.386333         0.694890        -1.304115
 H        -0.574911        -0.483343        -0.406791
 H         0.450265        -0.685826         2.396834
 H         1.119848        -1.992831         1.373320
 H         2.729959        -0.331143         3.399397
 H         2.637760        -2.063012         2.960888
 H         4.738461        -0.963571         1.884707
 H         4.410517         1.073941         0.316320
 H         4.201462        -1.805200        -0.579702
