19
Iteration:  3207charge 0 multiplicity 1
 C         0.186299         0.151397        -0.252378
 C         1.476143        -0.241307         0.364347
 C         1.204795        -0.756961         1.769939
 C         2.610904        -1.294629         2.423592
 C         3.728786        -0.817252         1.473637
 C         3.597092         0.433355         0.596711
 O         2.279968         0.927346         0.535872
 C         3.564830        -0.931272        -0.021679
 O         2.306526        -1.143473        -0.495984
 H        -0.519073         0.433030         0.494518
 H         0.235440         0.988954        -1.015124
 H        -0.217305        -0.703613        -0.774304
 H         0.671136         0.047591         2.216984
 H         0.427917        -1.511331         1.700853
 H         2.624244        -0.920514         3.487639
 H         2.737093        -2.346618         2.516826
 H         4.744140        -1.160768         1.731450
 H         4.174698         1.311069         0.461312
 H         4.374017        -1.259052        -0.627257
