19
Iteration:  1007
 C         0.167400         0.280012        -0.209839
 C         1.412771        -0.244201         0.405722
 C         1.229802        -1.245338         1.591631
 C         2.668630        -1.275100         2.395654
 C         3.747887        -0.813913         1.476693
 C         3.554439         0.510316         0.734404
 O         2.216432         0.906725         0.654092
 C         3.617404        -0.728775        -0.048945
 O         2.330533        -1.044166        -0.596345
 H        -0.309729         1.004140         0.438517
 H         0.339909         0.768296        -1.188555
 H        -0.538683        -0.510791        -0.537411
 H         0.271854        -1.093682         2.206955
 H         0.988103        -2.339700         1.127522
 H         2.690014        -0.574929         3.251753
 H         2.617657        -2.224015         2.943532
 H         4.839924        -1.050723         1.668945
 H         4.192493         1.338576         0.798996
 H         4.436901        -0.968548        -0.695402
