19
Iteration:   613charge 0 multiplicity 1
 C         0.203041        -0.022604        -0.405400
 C         1.420474        -0.277139         0.414104
 C         1.287353        -0.929657         1.797742
 C         2.648192        -1.445945         2.173706
 C         3.723636        -0.776548         1.475539
 C         3.536980         0.518296         0.842776
 O         2.194275         0.908877         0.761153
 C         3.602529        -0.718641        -0.066943
 O         2.292716        -0.894475        -0.589260
 H        -0.551938         0.629292         0.044428
 H         0.481206         0.584952        -1.289085
 H        -0.307564        -0.891047        -0.846697
 H         1.075374        -0.075480         2.410933
 H         0.601194        -1.610775         2.176568
 H         2.742912        -1.485925         3.303531
 H         2.698184        -2.608025         1.928471
 H         4.770992        -1.214998         1.663131
 H         4.238452         1.297038         0.791180
 H         4.447179        -1.075129        -0.623482
