19
Iteration:  4876
 C         0.154931         0.228956        -0.301401
 C         1.425776        -0.121215         0.381400
 C         1.277182        -0.882515         1.740276
 C         2.605148        -1.217706         2.500720
 C         3.815405        -0.863771         1.490736
 C         3.624349         0.354754         0.601233
 O         2.294681         0.981567         0.483108
 C         3.600484        -1.038437        -0.055163
 O         2.184427        -1.116162        -0.449551
 H        -0.252842         1.193034         0.122663
 H         0.282114         0.430680        -1.348033
 H        -0.611177        -0.578010        -0.341005
 H         0.646305        -0.473319         2.458596
 H         0.728584        -1.899372         1.485107
 H         2.753049        -0.513791         3.303546
 H         2.452691        -2.285385         2.913149
 H         4.807189        -0.968965         1.866831
 H         4.278585         1.216074         0.550889
 H         4.270577        -1.544198        -0.761615
