19
Iteration:  3822charge 0 multiplicity 1
 C         0.227520         0.114408        -0.421682
 C         1.451439        -0.157095         0.401814
 C         1.259909        -0.729963         1.814703
 C         2.655607        -1.275389         2.350347
 C         3.812602        -0.886958         1.489987
 C         3.583010         0.367503         0.643175
 O         2.242456         0.993070         0.605875
 C         3.543132        -0.955239        -0.098392
 O         2.175161        -1.150251        -0.409028
 H        -0.184670         1.031492         0.033178
 H         0.469931         0.316605        -1.480902
 H        -0.501360        -0.689059        -0.248326
 H         0.940138         0.166603         2.434196
 H         0.461557        -1.489738         1.862325
 H         2.847979        -1.046681         3.417137
 H         2.393720        -2.383867         2.326917
 H         4.831982        -0.967652         1.792220
 H         4.352719         1.055196         0.424134
 H         4.362324        -1.262593        -0.783457
