19
Iteration:   911charge 0 multiplicity 1
 C         0.059421         0.099421        -0.208682
 C         1.426792        -0.159303         0.366509
 C         1.251693        -0.986803         1.633497
 C         2.591338        -1.520716         2.197492
 C         3.762588        -0.755125         1.523515
 C         3.598777         0.495917         0.746530
 O         2.234937         1.011651         0.584468
 C         3.657910        -0.677943        -0.040860
 O         2.373224        -1.083915        -0.422715
 H        -0.596489         0.311188         0.639945
 H        -0.082959         0.712454        -1.127333
 H        -0.329195        -0.868825        -0.682880
 H         0.645253        -0.346917         2.389433
 H         0.655563        -1.829864         1.294288
 H         2.488273        -1.510127         3.294496
 H         2.817444        -2.580400         1.943022
 H         4.765884        -1.010125         1.993716
 H         4.349149         1.201210         0.848496
 H         4.437716        -0.912877        -0.712109
