19
Iteration:  1894
 C         0.132096         0.099248        -0.350621
 C         1.459722        -0.267303         0.344782
 C         1.302378        -1.062266         1.639922
 C         2.632164        -1.110246         2.431603
 C         3.760363        -0.875468         1.462656
 C         3.590568         0.375026         0.724334
 O         2.299985         0.830830         0.811639
 C         3.536387        -0.818368        -0.049350
 O         2.225458        -0.863242        -0.608015
 H        -0.383768         0.791988         0.286363
 H         0.451964         0.575141        -1.284339
 H        -0.433729        -0.745518        -0.695002
 H         0.374964        -0.742479         2.108410
 H         0.929736        -2.074608         1.212340
 H         2.807750        -0.320429         3.193169
 H         2.679420        -2.109391         2.910670
 H         4.727372        -1.147194         1.893628
 H         4.225673         1.291834         0.465041
 H         4.307839        -1.141278        -0.698971
