19
Iteration:   721charge 0 multiplicity 1
 C         0.122201         0.093247        -0.431398
 C         1.429630        -0.196289         0.411758
 C         1.276081        -1.136526         1.679035
 C         2.665197        -1.292239         2.357372
 C         3.791216        -0.878958         1.406113
 C         3.564001         0.453382         0.861857
 O         2.225104         0.958007         0.817916
 C         3.558235        -0.724906        -0.149237
 O         2.263846        -0.924490        -0.557476
 H        -0.697065         0.604496         0.108282
 H         0.524143         0.515563        -1.362680
 H        -0.205157        -0.880037        -0.819664
 H         0.466066        -0.773899         2.313796
 H         1.189295        -2.163216         1.225033
 H         2.689896        -0.579320         3.157597
 H         2.794016        -2.274772         2.751336
 H         4.837146        -1.073071         1.823659
 H         4.357783         1.166257         0.922562
 H         4.395194        -0.937442        -0.822257
