19
Iteration:   187
 C         0.156676         0.104680        -0.276474
 C         1.452173        -0.251338         0.478480
 C         1.186836        -0.872250         1.819970
 C         2.560552        -1.469264         2.072808
 C         3.786233        -0.759231         1.557628
 C         3.558802         0.538790         0.741415
 O         2.157892         0.913133         0.624682
 C         3.677755        -0.749532        -0.029331
 O         2.391203        -1.093226        -0.512787
 H        -0.396911         0.564733         0.548312
 H         0.416878         0.768612        -1.019009
 H        -0.298014        -0.723169        -0.711469
 H         0.932760         0.025313         2.396341
 H         0.459725        -1.677408         1.764305
 H         2.636695        -1.959658         3.035905
 H         2.500614        -2.226852         1.291390
 H         4.773565        -0.866115         2.048374
 H         4.190165         1.377577         0.359204
 H         4.509199        -0.958689        -0.786500
