19
Iteration:    69
 C         0.076073         0.322786        -0.352685
 C         1.415502        -0.258878         0.409110
 C         1.392607        -1.302114         1.654010
 C         2.654278        -1.262290         2.460999
 C         3.745660        -0.849574         1.503170
 C         3.592985         0.492314         0.645099
 O         2.256507         0.913154         0.683998
 C         3.547520        -0.774056        -0.052667
 O         2.214854        -0.959418        -0.590136
 H        -0.442535         0.926596         0.468601
 H         0.615823         0.944655        -1.089249
 H        -0.393923        -0.574371        -0.859205
 H         0.524158        -1.090811         2.314423
 H         1.281571        -2.230217         1.118378
 H         2.587594        -0.474623         3.199843
 H         2.877591        -2.237082         3.015456
 H         4.670744        -1.057273         1.999089
 H         4.353543         1.285970         0.896459
 H         4.340662        -1.223379        -0.689378
