19
Iteration:  3275
 C         0.218031         0.241331        -0.330420
 C         1.377437        -0.310881         0.441621
 C         1.226050        -1.137880         1.704511
 C         2.642405        -0.964157         2.406228
 C         3.787936        -0.763267         1.466460
 C         3.605320         0.366665         0.602194
 O         2.318710         0.900411         0.671824
 C         3.515898        -0.970756        -0.058109
 O         2.194061        -1.055501        -0.502477
 H        -0.009580         1.278524         0.040426
 H         0.744667         0.392523        -1.290685
 H        -0.678280        -0.374405        -0.545952
 H         0.488886        -0.863308         2.356049
 H         0.855866        -2.190232         1.477304
 H         2.679959        -0.128637         3.160022
 H         2.704341        -1.802119         3.118309
 H         4.754332        -1.184427         1.693868
 H         4.562389         1.014484         0.410406
 H         4.269591        -1.252126        -0.831819
