19
Iteration:  3100
 C         0.058646         0.115478        -0.208065
 C         1.425063        -0.155157         0.294601
 C         1.260477        -0.971201         1.676202
 C         2.618570        -1.278623         2.425180
 C         3.732115        -0.851255         1.528108
 C         3.660373         0.425808         0.724006
 O         2.318099         1.021658         0.426275
 C         3.591849        -0.955360         0.012338
 O         2.251804        -1.055334        -0.505758
 H        -0.245602         0.998474         0.339763
 H         0.172916         0.345548        -1.324820
 H        -0.651534        -0.653568         0.068990
 H         0.698912        -0.295377         2.261244
 H         0.701105        -1.954074         1.450497
 H         2.668009        -0.629376         3.345694
 H         2.757382        -2.346980         2.716784
 H         4.730329        -0.711130         1.986103
 H         4.507887         1.051288         0.706373
 H         4.435503        -1.276405        -0.633089
