19
Iteration:   266charge 0 multiplicity 1
 C         0.075194         0.060730        -0.239967
 C         1.489142        -0.314989         0.326341
 C         1.240461        -1.115432         1.559618
 C         2.598206        -1.182701         2.292882
 C         3.784827        -0.911821         1.415770
 C         3.629976         0.492513         0.718761
 O         2.248916         0.939525         0.893508
 C         3.607977        -0.807026        -0.015216
 O         2.308842        -0.861595        -0.623790
 H        -0.439964         0.684673         0.473042
 H         0.226043         0.669073        -1.174414
 H        -0.564382        -0.881172        -0.329079
 H         0.383846        -0.615429         2.103553
 H         0.727632        -2.085108         1.418459
 H         2.512384        -0.481798         3.088527
 H         2.725806        -2.097032         2.941908
 H         4.838957        -1.315952         1.555685
 H         4.303574         1.262447         0.717165
 H         4.316139        -1.090968        -0.723184
