19
Iteration:  4969charge 0 multiplicity 1
 C         0.152934         0.139062        -0.429060
 C         1.450117        -0.112069         0.461647
 C         1.223034        -0.856901         1.836277
 C         2.570128        -1.233278         2.422063
 C         3.750715        -0.790032         1.455411
 C         3.639054         0.356331         0.475408
 O         2.383325         0.909945         0.626735
 C         3.541011        -0.947341        -0.098752
 O         2.206122        -1.095731        -0.365417
 H        -0.549127         0.742133         0.094871
 H         0.375751         0.622508        -1.420878
 H        -0.313997        -0.759957        -0.771740
 H         0.742190        -0.134408         2.629676
 H         0.606593        -1.645410         1.676889
 H         2.534969        -0.758298         3.500816
 H         2.708471        -2.335788         2.511597
 H         4.816778        -1.049544         1.670407
 H         4.415302         1.051441         0.300096
 H         4.367278        -1.483792        -0.758989
