19
Iteration:  4524charge 0 multiplicity 1
 C         0.168079         0.106001        -0.279235
 C         1.456493        -0.152396         0.332425
 C         1.265488        -0.887140         1.737045
 C         2.564832        -1.092007         2.452329
 C         3.743791        -0.890209         1.526680
 C         3.740215         0.313037         0.645107
 O         2.400683         1.014203         0.558368
 C         3.548093        -0.972426        -0.064056
 O         2.111702        -1.097523        -0.518226
 H        -0.354502         1.010231         0.127417
 H         0.169414         0.251473        -1.347815
 H        -0.544470        -0.736913        -0.159379
 H         0.533131        -0.321855         2.396880
 H         0.668951        -1.911368         1.546081
 H         2.680893        -0.368081         3.185799
 H         2.389513        -2.039349         3.030884
 H         4.784587        -1.233673         1.752367
 H         4.484752         1.068085         0.468559
 H         4.208632        -1.536188        -0.765764
