19
Iteration:   315charge 0 multiplicity 1
 C         0.236538         0.275894        -0.226019
 C         1.463669        -0.304898         0.368579
 C         1.344660        -1.358816         1.538144
 C         2.628783        -1.257774         2.398555
 C         3.726716        -0.782047         1.526599
 C         3.556846         0.546948         0.654658
 O         2.193503         0.944677         0.717003
 C         3.540632        -0.806334         0.048097
 O         2.232268        -0.920381        -0.620101
 H        -0.015359         1.089890         0.553136
 H         0.564275         0.725885        -1.140595
 H        -0.565028        -0.435263        -0.241303
 H         0.456933        -1.481320         2.088730
 H         1.404780        -2.290000         0.994010
 H         2.434115        -0.611006         3.252521
 H         2.881882        -2.192046         2.833079
 H         4.735763        -0.995988         1.871237
 H         4.207762         1.448103         0.292790
 H         4.161281        -1.450851        -0.672859
