19
Iteration:  1712charge 0 multiplicity 1
 C         0.144807         0.371649        -0.226343
 C         1.439651        -0.327414         0.376807
 C         1.312350        -1.226187         1.568793
 C         2.574949        -1.171924         2.367550
 C         3.803418        -0.944383         1.443851
 C         3.520606         0.537465         0.658357
 O         2.186056         0.951243         0.620998
 C         3.611100        -0.826952         0.030132
 O         2.298754        -1.107402        -0.490626
 H        -0.219113         1.033616         0.576341
 H         0.650782         1.023344        -1.003836
 H        -0.518676        -0.390203        -0.684201
 H         0.437378        -0.910940         2.358855
 H         1.176628        -2.236421         1.167427
 H         2.782855        -0.336148         3.051895
 H         2.836476        -1.981813         3.035880
 H         4.759860        -1.073568         1.919364
 H         4.159814         1.382625         0.737630
 H         4.347201        -1.021733        -0.793813
