19
Iteration:  2389charge 0 multiplicity 1
 C         0.221841         0.319484        -0.241915
 C         1.477316        -0.326622         0.345810
 C         1.223525        -1.046441         1.653686
 C         2.588864        -1.177953         2.464608
 C         3.781212        -0.789629         1.466760
 C         3.554309         0.501778         0.635367
 O         2.229608         0.885877         0.698984
 C         3.591342        -0.877136        -0.050065
 O         2.246212        -1.131451        -0.555746
 H        -0.177256         1.198585         0.287122
 H         0.471606         0.756786        -1.256247
 H        -0.537522        -0.414154        -0.589188
 H         0.396874        -0.657390         2.262620
 H         0.952118        -2.121275         1.472146
 H         2.649941        -0.642903         3.403860
 H         2.924057        -2.274622         2.616874
 H         4.863354        -1.064592         1.645743
 H         4.269317         1.214602         0.371999
 H         4.367702        -1.365635        -0.710226
