19
Iteration:  1045
 C         0.088973         0.071142        -0.236745
 C         1.449033        -0.184550         0.356328
 C         1.250276        -1.040238         1.576516
 C         2.608253        -1.356370         2.356559
 C         3.784357        -0.825723         1.523318
 C         3.594618         0.504147         0.784205
 O         2.257953         0.939330         0.682413
 C         3.574579        -0.803340        -0.033880
 O         2.293686        -0.960588        -0.635151
 H        -0.505991         0.646491         0.520049
 H         0.304760         0.541363        -1.202235
 H        -0.370045        -0.914228        -0.264444
 H         0.760121        -0.367097         2.288266
 H         0.759879        -1.920696         1.334363
 H         2.659857        -0.957656         3.357331
 H         2.810086        -2.372278         2.303761
 H         4.734148        -0.933196         1.965786
 H         4.450782         1.253879         0.756501
 H         4.425532        -1.066853        -0.651480
