19
Iteration:  2220
 C         0.205741         0.035475        -0.340865
 C         1.440885        -0.224568         0.387709
 C         1.257794        -0.769326         1.754460
 C         2.602834        -1.394078         2.282941
 C         3.775017        -0.889229         1.415517
 C         3.561247         0.490121         0.739356
 O         2.241578         0.988847         0.674953
 C         3.577031        -0.815965        -0.064446
 O         2.285340        -1.064553        -0.437715
 H        -0.592166         0.649152         0.115605
 H         0.403334         0.393196        -1.432211
 H        -0.363169        -0.867695        -0.551145
 H         0.937770         0.055572         2.407293
 H         0.442775        -1.427005         1.725293
 H         2.828225        -1.357704         3.350701
 H         2.534009        -2.510226         1.976790
 H         4.750539        -1.128752         1.927900
 H         4.359366         1.194140         0.573765
 H         4.281254        -1.029380        -0.894814
