19
Iteration:  2704charge 0 multiplicity 1
 C         0.235086         0.087648        -0.321599
 C         1.397555        -0.212009         0.406148
 C         1.278306        -0.712857         1.849704
 C         2.581558        -1.555964         2.247871
 C         3.748764        -0.820710         1.488945
 C         3.513729         0.514808         0.670610
 O         2.226376         0.945577         0.517475
 C         3.658537        -0.754013        -0.065939
 O         2.257901        -1.153905        -0.394300
 H        -0.334813         0.856891         0.154592
 H         0.711726         0.371099        -1.266994
 H        -0.353174        -0.769181        -0.352568
 H         1.145916         0.242363         2.366132
 H         0.192815        -1.032377         1.881128
 H         2.894386        -1.535919         3.310583
 H         2.464014        -2.611388         1.980680
 H         4.846057        -0.902713         1.820736
 H         4.370001         1.144344         0.813954
 H         4.405426        -1.050724        -0.902834
