19
Iteration:  1213charge 0 multiplicity 1
 C         0.260945         0.349879        -0.361080
 C         1.375583        -0.304405         0.400154
 C         1.250730        -1.179432         1.685109
 C         2.635996        -1.190856         2.251511
 C         3.845651        -0.924355         1.360812
 C         3.546450         0.510122         0.730753
 O         2.133700         0.916429         0.784010
 C         3.599034        -0.777488        -0.075456
 O         2.267302        -1.097237        -0.435637
 H        -0.395640         0.947029         0.277970
 H         0.740811         0.601611        -1.305961
 H        -0.376055        -0.557611        -0.672688
 H         0.467868        -0.798250         2.348892
 H         1.140918        -2.212617         1.225471
 H         2.534293        -0.408692         3.070351
 H         2.870367        -2.057232         2.969233
 H         4.877421        -0.849966         1.786661
 H         4.302416         1.309181         0.798601
 H         4.300042        -0.941991        -0.884334
