19
Iteration:  2274
 C         0.241914         0.172782        -0.316309
 C         1.448710        -0.192556         0.373029
 C         1.307806        -0.813532         1.796203
 C         2.624541        -1.530414         2.192849
 C         3.804804        -0.808048         1.496829
 C         3.497573         0.519362         0.730338
 O         2.203879         0.980722         0.501313
 C         3.562866        -0.815425        -0.014194
 O         2.259554        -1.191967        -0.359281
 H        -0.452375         0.820224         0.238972
 H         0.404073         0.857017        -1.239926
 H        -0.181898        -0.700749        -0.800637
 H         0.977385        -0.108546         2.592580
 H         0.485520        -1.489778         1.642738
 H         2.719808        -1.222908         3.219379
 H         2.623982        -2.592469         2.096329
 H         4.790838        -0.904356         1.969221
 H         4.257151         1.316862         0.837596
 H         4.158854        -1.041056        -0.847647
