19
Iteration:  2751charge 0 multiplicity 1
 C         0.149959         0.128208        -0.308697
 C         1.465867        -0.183832         0.369682
 C         1.211486        -0.901027         1.720887
 C         2.603783        -1.435798         2.331095
 C         3.803793        -0.760609         1.529484
 C         3.603274         0.476866         0.632954
 O         2.294685         0.976395         0.513514
 C         3.576261        -0.837949        -0.079474
 O         2.258689        -1.096529        -0.345954
 H        -0.368363         0.933648         0.347337
 H         0.305786         0.497007        -1.325247
 H        -0.527148        -0.778059        -0.104230
 H         0.714351        -0.287670         2.436248
 H         0.429846        -1.578189         1.444978
 H         2.471682        -1.323101         3.382610
 H         2.759812        -2.599070         2.187594
 H         4.757879        -0.866958         1.992963
 H         4.412266         1.207201         0.549877
 H         4.278885        -1.164961        -0.860235
