19
Iteration:   189
 C         0.151872         0.123680        -0.271691
 C         1.447674        -0.255852         0.480821
 C         1.195644        -0.866688         1.801781
 C         2.575292        -1.471169         2.086530
 C         3.778074        -0.754421         1.568637
 C         3.565857         0.549226         0.736616
 O         2.151382         0.906413         0.630615
 C         3.669256        -0.758516        -0.040637
 O         2.394649        -1.107797        -0.510618
 H        -0.384044         0.553507         0.592459
 H         0.494059         0.795799        -1.064428
 H        -0.311490        -0.759630        -0.790490
 H         0.898714         0.045967         2.405231
 H         0.441247        -1.659824         1.746551
 H         2.653505        -1.972820         3.008397
 H         2.501913        -2.242809         1.247573
 H         4.820207        -0.839737         2.063388
 H         4.145083         1.365583         0.406589
 H         4.458826        -0.914545        -0.787967
