19
Iteration:  3213charge 0 multiplicity 1
 C         0.191212         0.143740        -0.224726
 C         1.445241        -0.219028         0.335212
 C         1.177552        -0.785246         1.714801
 C         2.588126        -1.284795         2.459985
 C         3.733990        -0.789598         1.478141
 C         3.618057         0.417996         0.627314
 O         2.285282         0.876274         0.524638
 C         3.612743        -0.923942        -0.011821
 O         2.278282        -1.097791        -0.521392
 H        -0.492231         0.460687         0.624513
 H         0.185934         0.934315        -0.911628
 H        -0.200023        -0.809628        -0.665341
 H         0.825402         0.217684         2.279411
 H         0.515769        -1.680005         1.750366
 H         2.686400        -0.676736         3.346788
 H         2.670623        -2.414982         2.633651
 H         4.766964        -1.122547         1.640180
 H         4.298227         1.292643         0.491888
 H         4.382218        -1.425368        -0.710053
