19
Iteration:  2180
 C         0.100444         0.233089        -0.150602
 C         1.494220        -0.244712         0.354976
 C         1.259148        -1.074045         1.625352
 C         2.599507        -1.296879         2.405307
 C         3.739945        -0.748364         1.571404
 C         3.589968         0.471199         0.698292
 O         2.286276         0.919462         0.512048
 C         3.571266        -0.932843         0.022380
 O         2.281880        -0.997360        -0.582311
 H        -0.307120         0.949107         0.530914
 H         0.324966         0.754855        -1.013141
 H        -0.420600        -0.644704        -0.475345
 H         0.375439        -0.634242         2.055526
 H         0.957026        -2.103554         1.250705
 H         2.618543        -0.895893         3.400685
 H         2.732951        -2.394694         2.472557
 H         4.754771        -0.846011         1.835123
 H         4.358811         1.291771         0.482073
 H         4.319638        -1.172825        -0.658517
