19
Iteration:  3476charge 0 multiplicity 1
 C         0.168249         0.178431        -0.287982
 C         1.439762        -0.286219         0.341016
 C         1.252949        -1.007966         1.681084
 C         2.627557        -1.030165         2.458806
 C         3.776187        -0.940526         1.501764
 C         3.637096         0.413838         0.592859
 O         2.303662         0.916146         0.640377
 C         3.485028        -0.953426        -0.019370
 O         2.239510        -1.055820        -0.566979
 H        -0.111581         1.128871         0.203783
 H         0.094172         0.471451        -1.445284
 H        -0.710284        -0.517102        -0.133846
 H         0.715166        -0.313077         2.288317
 H         0.614910        -1.924078         1.633228
 H         2.737680        -0.118620         3.135761
 H         2.892419        -1.965129         3.050721
 H         4.801405        -1.016121         1.947107
 H         4.393791         1.324425         0.637408
 H         4.298088        -1.387292        -0.631512
