19
Iteration:  4126charge 0 multiplicity 1
 C         0.124758         0.132289        -0.304289
 C         1.458252        -0.258924         0.335224
 C         1.250309        -0.721836         1.767102
 C         2.542753        -1.334441         2.335094
 C         3.824237        -0.801484         1.509393
 C         3.629328         0.382980         0.632070
 O         2.363962         0.990296         0.467902
 C         3.546603        -0.921272         0.024566
 O         2.194289        -1.175802        -0.388923
 H        -0.302912         1.073413         0.158143
 H         0.213769         0.345231        -1.331154
 H        -0.662836        -0.671864        -0.233864
 H         1.034095         0.241382         2.323345
 H         0.423485        -1.327756         1.834351
 H         2.653881        -1.038385         3.427622
 H         2.719452        -2.393898         2.414307
 H         4.844464        -0.844542         1.883666
 H         4.373089         1.068311         0.329837
 H         4.316085        -1.272527        -0.578364
