19
Iteration:  1893
 C         0.130813         0.105063        -0.362386
 C         1.470715        -0.270874         0.349172
 C         1.301318        -1.054892         1.647444
 C         2.641249        -1.108233         2.431093
 C         3.757009        -0.884245         1.468681
 C         3.582286         0.382706         0.722117
 O         2.301334         0.827529         0.811342
 C         3.535537        -0.813162        -0.051144
 O         2.225170        -0.859189        -0.615910
 H        -0.395531         0.766355         0.299367
 H         0.435392         0.536752        -1.269327
 H        -0.435831        -0.766694        -0.690831
 H         0.337413        -0.737829         2.153546
 H         0.909339        -2.071474         1.265572
 H         2.801964        -0.350060         3.189129
 H         2.696145        -2.143829         2.868603
 H         4.692018        -1.150839         1.907856
 H         4.216059         1.269781         0.468342
 H         4.350855        -1.173584        -0.690607
