19
Iteration:   506charge 0 multiplicity 1
 C         0.151775         0.122001        -0.324586
 C         1.454961        -0.231302         0.410839
 C         1.248602        -1.218348         1.535756
 C         2.598076        -1.207636         2.360070
 C         3.766157        -0.957484         1.411709
 C         3.581969         0.456841         0.768243
 O         2.215425         0.895873         0.801531
 C         3.595461        -0.675126        -0.113132
 O         2.318741        -0.895662        -0.505641
 H        -0.317872         0.842106         0.309353
 H         0.394092         0.527631        -1.304222
 H        -0.412853        -0.780327        -0.236874
 H         0.442289        -0.818637         2.201140
 H         1.140636        -2.252141         1.168706
 H         2.456491        -0.285763         2.906827
 H         2.678373        -2.042466         2.978427
 H         4.737117        -1.136441         1.836368
 H         4.313150         1.284300         0.850504
 H         4.316050        -0.862241        -0.943319
