19
Iteration:  2679charge 0 multiplicity 1
 C         0.158881         0.006450        -0.451359
 C         1.407556        -0.140304         0.350453
 C         1.282850        -0.806222         1.859642
 C         2.624556        -1.409102         2.242457
 C         3.777515        -0.794205         1.503448
 C         3.601936         0.415668         0.722386
 O         2.266906         1.034108         0.605195
 C         3.592978        -0.903798        -0.077265
 O         2.228711        -1.039391        -0.364093
 H        -0.396408         0.576679         0.234293
 H         0.344642         0.611731        -1.320140
 H        -0.317957        -0.947384        -0.558618
 H         0.815548        -0.017703         2.531015
 H         0.454006        -1.549932         1.825381
 H         2.864873        -1.381535         3.339851
 H         2.603889        -2.410653         2.041430
 H         4.743224        -1.183915         1.737538
 H         4.482601         1.072713         0.469402
 H         4.177854        -1.154602        -0.865459
