19
Iteration:  4844
 C         0.268832         0.190595        -0.354304
 C         1.440303        -0.265120         0.370621
 C         1.247146        -0.792157         1.779852
 C         2.611823        -1.134281         2.429308
 C         3.776201        -0.899295         1.459623
 C         3.649216         0.418020         0.610015
 O         2.269276         0.859882         0.642781
 C         3.517898        -0.968010        -0.102860
 O         2.166676        -1.100462        -0.496140
 H        -0.294754         0.905688         0.291123
 H         0.638953         0.598439        -1.269909
 H        -0.462195        -0.633255        -0.513819
 H         0.920099         0.024463         2.324197
 H         0.539473        -1.692622         1.898431
 H         2.801005        -0.430001         3.249778
 H         2.521512        -2.159704         3.002990
 H         4.739526        -1.271316         1.744422
 H         4.257049         1.298054         0.415515
 H         4.282379        -1.449352        -0.714994
