19
Iteration:  4614charge 0 multiplicity 1
 C         0.152269         0.181845        -0.413275
 C         1.428226        -0.154577         0.399910
 C         1.244795        -0.915567         1.768048
 C         2.610154        -1.122562         2.467805
 C         3.792807        -0.857833         1.464770
 C         3.722189         0.357768         0.635645
 O         2.364444         0.933650         0.587198
 C         3.465456        -1.010054        -0.055316
 O         2.123117        -1.072861        -0.451270
 H        -0.487532         0.837490         0.147544
 H         0.671656         0.605365        -1.327465
 H        -0.320689        -0.753006        -0.677346
 H         0.585965        -0.332571         2.369850
 H         0.592575        -1.893523         1.741166
 H         2.815062        -0.406095         3.177006
 H         2.803960        -2.091731         2.964818
 H         4.790989        -1.132973         1.815036
 H         4.588219         0.916652         0.235012
 H         4.221910        -1.325437        -0.745483
