19
Iteration:   772
 C         0.090543         0.322101        -0.186135
 C         1.445767        -0.291665         0.334391
 C         1.336573        -1.272801         1.528225
 C         2.641322        -1.188777         2.437880
 C         3.759415        -0.895107         1.514060
 C         3.482289         0.507590         0.829699
 O         2.177785         0.912908         0.642888
 C         3.647704        -0.763956        -0.110564
 O         2.350498        -1.009608        -0.634900
 H        -0.182438         0.600668         0.801384
 H         0.331185         1.020555        -1.009983
 H        -0.530123        -0.443005        -0.711150
 H         0.481672        -1.128100         2.275355
 H         1.019310        -2.290244         1.044201
 H         2.377473        -0.434086         3.226324
 H         2.769212        -2.158796         2.979205
 H         4.817206        -0.981619         1.985585
 H         4.242091         1.171218         0.942825
 H         4.436454        -0.872776        -0.755702
