19
Iteration:  2454
 C         0.161444         0.030529        -0.342244
 C         1.398736        -0.282458         0.393248
 C         1.250424        -0.719898         1.872641
 C         2.574557        -1.461458         2.210240
 C         3.754364        -0.805850         1.498122
 C         3.553735         0.472291         0.677444
 O         2.301180         0.995860         0.622158
 C         3.664312        -0.918812        -0.048715
 O         2.253587        -0.989341        -0.473388
 H        -0.653758         0.331860         0.318253
 H         0.432233         0.585105        -1.288810
 H        -0.046700        -0.952313        -0.795739
 H         1.219256         0.229591         2.356063
 H         0.317428        -1.250149         2.042346
 H         2.780324        -1.275068         3.197172
 H         2.464521        -2.598667         2.061092
 H         4.704748        -0.926035         2.066783
 H         4.317108         1.208368         0.431334
 H         4.355159        -1.279458        -0.810566
