19
Iteration:  1630
 C         0.159031         0.060073        -0.349663
 C         1.438271        -0.245438         0.399664
 C         1.284063        -0.956431         1.744261
 C         2.598493        -1.339503         2.321368
 C         3.747536        -0.896660         1.462989
 C         3.561882         0.444098         0.753075
 O         2.263254         1.027028         0.648162
 C         3.607988        -0.776908        -0.110955
 O         2.269797        -1.003748        -0.492919
 H        -0.454988         0.804428         0.196531
 H         0.319211         0.540904        -1.365526
 H        -0.585309        -0.746888        -0.461707
 H         0.724503        -0.425603         2.415884
 H         0.680975        -1.863634         1.537991
 H         2.786783        -0.775162         3.271007
 H         2.672846        -2.448802         2.433600
 H         4.843312        -0.990267         1.757514
 H         4.413641         1.173125         0.862399
 H         4.361057        -1.161657        -0.695902
