19
Iteration:  1341charge 0 multiplicity 1
 C         0.212319         0.259452        -0.434356
 C         1.404446        -0.267071         0.371356
 C         1.291873        -0.954889         1.898747
 C         2.653818        -1.503579         2.187052
 C         3.811371        -0.759870         1.497035
 C         3.489426         0.530352         0.721948
 O         2.152622         1.001542         0.576752
 C         3.574596        -0.824976        -0.044068
 O         2.301593        -1.178463        -0.368405
 H        -0.317933         0.942197         0.208650
 H         0.632544         1.009127        -1.115328
 H        -0.270298        -0.626788        -0.877960
 H         0.849709        -0.048396         2.458558
 H         0.474171        -1.652405         1.924014
 H         3.030150        -1.531553         3.228784
 H         2.677312        -2.536123         1.819141
 H         4.921743        -0.848567         1.750793
 H         4.227719         1.313247         0.725056
 H         4.304719        -1.002741        -0.738470
