19
Iteration:  3830
 C         0.302414         0.121346        -0.409241
 C         1.434046        -0.197870         0.418212
 C         1.283643        -0.715691         1.837103
 C         2.630613        -1.359953         2.321569
 C         3.775569        -0.802761         1.484498
 C         3.648036         0.341085         0.604084
 O         2.207254         1.013344         0.565092
 C         3.504351        -1.002668        -0.099078
 O         2.179305        -1.096688        -0.338406
 H        -0.231301         0.975476        -0.148934
 H         0.573765         0.351134        -1.481395
 H        -0.455951        -0.626367        -0.425088
 H         0.803313         0.112457         2.540078
 H         0.592218        -1.506169         1.961774
 H         2.749960        -1.162669         3.385404
 H         2.689145        -2.430241         2.242383
 H         4.797130        -0.891843         1.907716
 H         4.308200         1.162389         0.531392
 H         4.099220        -1.308418        -0.937809
