19
Iteration:   457charge 0 multiplicity 1
 C         0.130348         0.196444        -0.302762
 C         1.446204        -0.289646         0.349400
 C         1.317509        -1.033666         1.685450
 C         2.619454        -1.485950         2.271468
 C         3.813134        -0.748087         1.517316
 C         3.503471         0.552963         0.756199
 O         2.131947         0.919532         0.710983
 C         3.667191        -0.782985         0.005125
 O         2.312452        -0.997524        -0.611292
 H        -0.387129         0.993463         0.308389
 H         0.506941         0.639894        -1.213861
 H        -0.519454        -0.690502        -0.444005
 H         0.964659        -0.292198         2.362606
 H         0.652429        -1.864358         1.630311
 H         2.474375        -1.285678         3.344686
 H         2.863843        -2.616298         2.049017
 H         4.791317        -1.055375         1.998373
 H         4.116257         1.395983         0.692981
 H         4.513835        -0.939025        -0.627240
