19
Iteration:  4554
 C         0.194496         0.296798        -0.298295
 C         1.443759        -0.164329         0.372265
 C         1.280989        -1.028078         1.726685
 C         2.603934        -1.092573         2.492647
 C         3.751648        -0.790494         1.492557
 C         3.655133         0.305749         0.569660
 O         2.304600         0.926510         0.466791
 C         3.519432        -1.098336         0.032496
 O         2.181136        -1.039994        -0.476222
 H        -0.226587         1.171359         0.249175
 H         0.425398         0.705777        -1.238613
 H        -0.578928        -0.485796        -0.414088
 H         0.442377        -0.635941         2.438811
 H         1.145655        -2.018284         1.439328
 H         2.741013        -0.324312         3.342159
 H         2.621934        -2.055369         2.993436
 H         4.740708        -0.996966         1.944060
 H         4.370698         1.081723         0.382851
 H         4.209672        -1.827221        -0.564683
