19
Iteration:  4209
 C         0.231308         0.336804        -0.354517
 C         1.467159        -0.198989         0.382465
 C         1.189469        -0.996176         1.790052
 C         2.593570        -1.124957         2.379364
 C         3.857694        -0.759552         1.491459
 C         3.584372         0.366544         0.509181
 O         2.304122         0.985737         0.551320
 C         3.551029        -1.057992         0.002914
 O         2.165584        -1.249956        -0.375992
 H        -0.267335         0.998287         0.349844
 H         0.624639         0.903127        -1.218893
 H        -0.336316        -0.529828        -0.677063
 H         0.507718        -0.365640         2.374683
 H         0.548819        -1.957012         1.588501
 H         2.572938        -0.410719         3.143207
 H         2.901673        -2.123562         2.661208
 H         4.762321        -0.845452         2.070654
 H         4.349214         1.133688         0.293737
 H         4.182316        -1.427090        -0.716705
