19
Iteration:  3020
 C         0.249757         0.173404        -0.381604
 C         1.416782        -0.260297         0.376531
 C         1.264428        -1.074958         1.752266
 C         2.611800        -1.143731         2.474226
 C         3.748257        -0.860617         1.425240
 C         3.554544         0.434728         0.604752
 O         2.327623         1.006407         0.698498
 C         3.523898        -0.930917        -0.082462
 O         2.194030        -1.061844        -0.499126
 H        -0.481399         0.598376         0.354010
 H         0.547007         0.937875        -1.031988
 H        -0.032261        -0.759378        -0.931922
 H         0.492859        -0.524418         2.291339
 H         0.934162        -2.076673         1.649174
 H         2.668733        -0.181455         3.138512
 H         2.759228        -1.949922         3.167501
 H         4.714569        -1.166702         1.781019
 H         4.389518         1.102108         0.236746
 H         4.281827        -1.200392        -0.785942
