19
Iteration:  1241
 C         0.184839         0.323845        -0.342176
 C         1.411332        -0.291842         0.388347
 C         1.317345        -1.200157         1.629534
 C         2.641945        -1.286766         2.366251
 C         3.751500        -0.745976         1.511335
 C         3.609919         0.526319         0.609941
 O         2.227477         0.904468         0.753694
 C         3.513369        -0.811527        -0.027977
 O         2.241577        -1.071948        -0.508141
 H        -0.310079         0.980511         0.381423
 H         0.566626         0.899848        -1.235176
 H        -0.389877        -0.527854        -0.716469
 H         0.425505        -0.888739         2.292487
 H         1.017436        -2.161796         1.266831
 H         2.452221        -0.852168         3.342220
 H         3.004933        -2.213203         2.708605
 H         4.860289        -0.900744         1.742493
 H         4.403595         1.273665         0.482239
 H         4.354178        -1.152226        -0.727767
