19
Iteration:  2935
 C         0.259983         0.055924        -0.441989
 C         1.382612        -0.147322         0.423396
 C         1.286477        -0.719254         1.889174
 C         2.655230        -1.474242         2.180473
 C         3.867127        -0.776017         1.591393
 C         3.556138         0.447899         0.694071
 O         2.228973         1.034770         0.556402
 C         3.525832        -0.846334        -0.065980
 O         2.197831        -1.188868        -0.393851
 H        -0.322199         0.964828        -0.229389
 H         0.566103         0.161597        -1.429132
 H        -0.508725        -0.736517        -0.344871
 H         1.069171         0.155591         2.514654
 H         0.469190        -1.543155         2.187009
 H         2.803587        -1.886662         3.179231
 H         2.441026        -2.361116         1.567082
 H         4.755734        -1.091534         2.097601
 H         4.254638         1.292900         0.438377
 H         4.297814        -1.029900        -0.738183
