19
Iteration:  2384charge 0 multiplicity 1
 C         0.238764         0.308828        -0.282298
 C         1.475253        -0.319847         0.322867
 C         1.230434        -1.072155         1.676174
 C         2.604573        -1.134518         2.435103
 C         3.772584        -0.769625         1.440797
 C         3.565643         0.502997         0.654977
 O         2.237423         0.850707         0.760536
 C         3.585986        -0.892408        -0.049393
 O         2.186752        -1.138049        -0.570489
 H        -0.012984         1.137665         0.390093
 H         0.646137         0.636466        -1.219172
 H        -0.586326        -0.354909        -0.554632
 H         0.360876        -0.631604         2.183909
 H         1.029176        -2.071985         1.327688
 H         2.722993        -0.545968         3.401251
 H         2.850434        -2.129499         2.631721
 H         4.804197        -0.937913         1.668001
 H         4.371099         1.302308         0.477931
 H         4.399377        -1.347951        -0.639204
