19
Iteration:  1954
 C         0.183727         0.277039        -0.193607
 C         1.427042        -0.272113         0.248253
 C         1.308267        -1.138711         1.597098
 C         2.614745        -1.239888         2.407773
 C         3.799415        -0.793595         1.631456
 C         3.532718         0.478316         0.690866
 O         2.196303         0.878141         0.645256
 C         3.617770        -0.840503        -0.000244
 O         2.268941        -1.032456        -0.665591
 H        -0.335351         0.904917         0.615419
 H         0.363218         1.001609        -1.047951
 H        -0.637926        -0.518724        -0.382153
 H         0.550948        -0.538235         2.197737
 H         0.927369        -2.114578         1.371903
 H         2.597216        -0.600198         3.379491
 H         2.902337        -2.279166         2.696335
 H         4.808242        -0.952330         1.990281
 H         4.182086         1.283196         0.560491
 H         4.450451        -1.421577        -0.559525
