19
Iteration:  2422
 C         0.091701         0.135749        -0.232010
 C         1.459603        -0.197652         0.351810
 C         1.256115        -0.889941         1.697014
 C         2.644962        -1.363073         2.339269
 C         3.749755        -0.844635         1.455610
 C         3.578218         0.446167         0.795108
 O         2.333439         1.038786         0.454984
 C         3.637333        -0.883684        -0.006345
 O         2.230952        -1.060525        -0.448191
 H        -0.737033         0.561632         0.376371
 H         0.234722         0.745819        -1.198570
 H        -0.327941        -0.866680        -0.405253
 H         0.538223        -0.361078         2.373869
 H         0.765343        -1.844712         1.350114
 H         2.716616        -1.086681         3.360701
 H         2.578601        -2.538964         2.375088
 H         4.759724        -1.036701         1.892911
 H         4.261804         1.270623         0.794375
 H         4.231142        -1.377106        -0.752939
