19
Iteration:   946
 C         0.174444         0.118305        -0.404640
 C         1.440698        -0.325659         0.361320
 C         1.308912        -1.054015         1.712926
 C         2.680354        -1.355377         2.392587
 C         3.724294        -0.826273         1.507725
 C         3.540548         0.409514         0.770516
 O         2.188760         0.914516         0.740466
 C         3.555511        -0.740015        -0.105990
 O         2.279663        -0.864912        -0.608572
 H        -0.536651         0.660070         0.270620
 H         0.533689         0.895985        -1.078682
 H        -0.254943        -0.834140        -0.761855
 H         0.684780        -0.361934         2.353901
 H         0.777384        -1.941515         1.692425
 H         2.800993        -0.803049         3.374404
 H         2.928665        -2.475556         2.509322
 H         4.807629        -0.928733         1.700316
 H         4.277501         1.246403         0.890329
 H         4.441220        -1.021222        -0.791670
