19
Iteration:  2063charge 0 multiplicity 1
 C         0.103016         0.172478        -0.236287
 C         1.518991        -0.208811         0.386867
 C         1.239787        -0.867563         1.717500
 C         2.587786        -1.555810         2.212855
 C         3.748230        -0.773039         1.505672
 C         3.507000         0.534763         0.747062
 O         2.248040         1.004299         0.446483
 C         3.665088        -0.768699         0.022990
 O         2.333750        -1.177069        -0.443733
 H        -0.292315         0.779275         0.655120
 H         0.182284         0.991513        -0.945873
 H        -0.567510        -0.740238        -0.588216
 H         0.665441        -0.227200         2.375191
 H         0.673723        -1.783615         1.497096
 H         2.739981        -1.334249         3.349901
 H         2.713061        -2.603077         2.083389
 H         4.643361        -0.849597         2.027312
 H         4.247722         1.375403         0.944878
 H         4.308755        -1.298388        -0.646050
