19
Iteration:  1801charge 0 multiplicity 1
 C         0.220509         0.079531        -0.307752
 C         1.469213        -0.192263         0.406950
 C         1.279429        -0.822440         1.851950
 C         2.622262        -1.560213         2.153387
 C         3.743410        -0.799889         1.518660
 C         3.505093         0.539076         0.766490
 O         2.163406         0.979483         0.495856
 C         3.613322        -0.799815        -0.001460
 O         2.332503        -1.091108        -0.443642
 H        -0.327251         0.701264         0.404698
 H         0.308969         0.724100        -1.232393
 H        -0.430907        -0.686100        -0.660354
 H         1.131424         0.155376         2.477826
 H         0.366789        -1.401412         1.856344
 H         2.668911        -1.834871         3.203433
 H         2.618356        -2.543674         1.636156
 H         4.777986        -1.047671         1.912028
 H         4.277558         1.350530         0.748243
 H         4.292790        -1.013804        -0.754545
