19
Iteration:  2965
 C         0.136348         0.133282        -0.258396
 C         1.462222        -0.245846         0.354422
 C         1.295514        -0.801616         1.759327
 C         2.558092        -1.507880         2.307937
 C         3.721686        -0.797063         1.487310
 C         3.536223         0.495718         0.677117
 O         2.241331         1.020254         0.433070
 C         3.705509        -0.881978        -0.067080
 O         2.295782        -1.123891        -0.383554
 H        -0.406214         0.745427         0.509018
 H         0.352161         0.641692        -1.136577
 H        -0.563432        -0.693561        -0.477942
 H         1.198006         0.157074         2.251030
 H         0.421410        -1.271483         2.092675
 H         2.692198        -1.202153         3.415321
 H         2.611245        -2.555649         2.198727
 H         4.564609        -0.891306         2.114985
 H         4.251779         1.349959         0.860051
 H         4.357366        -1.414781        -0.672698
