19
Iteration:   885
 C         0.184723         0.119002        -0.298788
 C         1.414826        -0.254064         0.385598
 C         1.289977        -0.961694         1.765177
 C         2.632494        -1.578973         2.105955
 C         3.778395        -0.695443         1.519144
 C         3.584713         0.552261         0.722458
 O         2.113046         1.003940         0.603760
 C         3.644625        -0.778503         0.065364
 O         2.312095        -1.019070        -0.455798
 H        -0.493401         0.507946         0.464124
 H         0.288116         0.698241        -1.182153
 H        -0.331180        -0.707842        -0.706603
 H         0.980103        -0.172781         2.441306
 H         0.544327        -1.873666         1.663308
 H         2.570572        -1.822331         3.139659
 H         2.818420        -2.469956         1.581965
 H         4.674165        -0.930145         1.997835
 H         4.394195         1.374272         0.705186
 H         4.450865        -1.238354        -0.563596
