19
Iteration:  2197
 C         0.114193         0.154236        -0.256726
 C         1.413087        -0.168746         0.339484
 C         1.291245        -0.990827         1.707383
 C         2.616239        -1.376073         2.352754
 C         3.725339        -0.863758         1.516735
 C         3.583956         0.438852         0.746834
 O         2.272632         0.989431         0.482314
 C         3.660856        -0.800448        -0.018369
 O         2.292190        -1.032893        -0.523216
 H        -0.420291         0.701301         0.570624
 H        -0.099518         0.680637        -1.277449
 H        -0.565592        -0.728579        -0.326681
 H         0.798278        -0.366881         2.506159
 H         0.573177        -1.755975         1.518573
 H         2.598109        -0.891944         3.373650
 H         2.708964        -2.479146         2.552326
 H         4.774630        -1.085514         1.943988
 H         4.326712         1.148287         0.870812
 H         4.472086        -1.295671        -0.660966
