19
Iteration:  3447
 C         0.111479         0.119708        -0.332330
 C         1.460645        -0.187384         0.406345
 C         1.226576        -0.845393         1.774629
 C         2.600431        -1.203507         2.433647
 C         3.748663        -0.857049         1.490024
 C         3.605344         0.360714         0.678396
 O         2.330397         0.967714         0.534002
 C         3.519580        -0.934366        -0.123943
 O         2.288112        -1.119541        -0.469053
 H        -0.172571         1.058898         0.164471
 H         0.206482         0.291641        -1.375949
 H        -0.482306        -0.783754        -0.179643
 H         0.678414        -0.107827         2.484952
 H         0.564648        -1.688084         1.646887
 H         2.894307        -0.762683         3.371056
 H         2.749207        -2.281028         2.415994
 H         4.724661        -0.845740         1.963499
 H         4.350760         1.141024         0.482243
 H         4.376036        -1.084653        -0.851885
