19
Iteration:  2219charge 0 multiplicity 1
 C         0.193507         0.040846        -0.329012
 C         1.451976        -0.230297         0.382848
 C         1.255806        -0.767924         1.745876
 C         2.599757        -1.401309         2.287605
 C         3.775719        -0.894924         1.408682
 C         3.562332         0.498970         0.742337
 O         2.243244         0.997369         0.668682
 C         3.573688        -0.822020        -0.057268
 O         2.292559        -1.066369        -0.441234
 H        -0.624713         0.639416         0.117852
 H         0.429353         0.400131        -1.437076
 H        -0.408342        -0.862098        -0.547225
 H         0.917499         0.065599         2.415022
 H         0.437202        -1.471923         1.705189
 H         2.859592        -1.345726         3.379558
 H         2.533432        -2.495250         2.028529
 H         4.760600        -1.122101         1.940864
 H         4.335000         1.189854         0.590848
 H         4.293794        -1.024764        -0.915186
