19
Iteration:  4789charge 0 multiplicity 1
 C         0.209305         0.247978        -0.280165
 C         1.475705        -0.165540         0.392644
 C         1.251336        -0.836743         1.789027
 C         2.601093        -1.257936         2.444970
 C         3.739269        -0.867130         1.495929
 C         3.562166         0.361382         0.625281
 O         2.295233         0.985043         0.372940
 C         3.576041        -1.023009        -0.016971
 O         2.196548        -1.130692        -0.427998
 H        -0.386714         0.785824         0.506212
 H         0.544674         1.032914        -0.938866
 H        -0.207916        -0.664888        -0.745040
 H         0.680537        -0.283770         2.478962
 H         0.654146        -1.825669         1.596070
 H         2.792787        -0.761519         3.405491
 H         2.506903        -2.449924         2.660492
 H         4.786702        -0.806031         1.765074
 H         4.372600         1.048695         0.518685
 H         4.463091        -1.310736        -0.697518
