19
Iteration:  1501charge 0 multiplicity 1
 C         0.167757         0.150448        -0.295136
 C         1.419098        -0.240577         0.376136
 C         1.269085        -1.039017         1.699973
 C         2.630971        -1.313696         2.354776
 C         3.791087        -0.866234         1.416317
 C         3.522217         0.451447         0.767246
 O         2.279269         0.989304         0.639498
 C         3.580883        -0.802709        -0.055696
 O         2.283549        -1.022587        -0.533775
 H        -0.514872         0.691257         0.347652
 H         0.255849         0.801888        -1.199955
 H        -0.250025        -0.794645        -0.616309
 H         0.656994        -0.568538         2.484877
 H         0.698226        -2.016997         1.360163
 H         2.716484        -0.658550         3.171213
 H         2.659663        -2.245350         2.891531
 H         4.793230        -1.145051         1.895823
 H         4.238748         1.264843         0.731779
 H         4.227893        -0.925526        -0.839844
