19
Iteration:  1064charge 0 multiplicity 1
 C         0.129937         0.046699        -0.377384
 C         1.450354        -0.216218         0.399808
 C         1.222260        -0.984643         1.751020
 C         2.610956        -1.450131         2.247555
 C         3.763779        -0.900768         1.422557
 C         3.549066         0.521451         0.741042
 O         2.235894         1.036164         0.678424
 C         3.683225        -0.712312        -0.100897
 O         2.307928        -0.986608        -0.393848
 H        -0.538480         0.694437         0.274297
 H         0.300616         0.637929        -1.284709
 H        -0.344557        -0.945930        -0.467589
 H         0.476088        -0.489919         2.550306
 H         0.692640        -1.971861         1.382544
 H         2.814402        -0.872246         3.151336
 H         2.471380        -2.498444         2.420956
 H         4.771251        -1.307565         1.563346
 H         4.349500         1.316038         0.834446
 H         4.451510        -1.050013        -0.893137
