19
Iteration:  2109charge 0 multiplicity 1
 C         0.169791         0.139907        -0.403303
 C         1.460731        -0.287925         0.363237
 C         1.294625        -1.066635         1.682568
 C         2.614098        -1.182980         2.484468
 C         3.722118        -0.856442         1.373175
 C         3.565136         0.441817         0.736681
 O         2.290389         0.908206         0.810479
 C         3.526842        -0.891911        -0.060784
 O         2.235837        -0.914229        -0.598357
 H        -0.317427         0.898672         0.256288
 H         0.426511         0.577696        -1.413469
 H        -0.259182        -0.898736        -0.665449
 H         0.563975        -0.573963         2.370370
 H         0.853188        -1.992376         1.454629
 H         2.791524        -0.372016         3.242628
 H         2.836840        -2.162654         2.966221
 H         4.775254        -1.132423         1.507883
 H         4.374507         1.177105         0.561661
 H         4.348601        -1.028384        -0.699214
