19
Iteration:  2758charge 0 multiplicity 1
 C         0.189944         0.132850        -0.294663
 C         1.442587        -0.186811         0.385633
 C         1.261142        -0.958188         1.744743
 C         2.546106        -1.372145         2.309888
 C         3.762272        -0.815514         1.498042
 C         3.594048         0.486895         0.621127
 O         2.305434         1.000702         0.543876
 C         3.572983        -0.810535        -0.062990
 O         2.254945        -1.112551        -0.368776
 H        -0.227410         0.867897         0.343087
 H         0.222772         0.394744        -1.334669
 H        -0.411794        -0.725939        -0.315623
 H         0.740977        -0.248417         2.435762
 H         0.600333        -1.869152         1.455228
 H         2.613268        -1.056597         3.386714
 H         2.630965        -2.413549         2.257642
 H         4.767020        -0.849733         2.033835
 H         4.457957         1.095351         0.532516
 H         4.269995        -1.175360        -0.931968
