19
Iteration:  1324charge 0 multiplicity 1
 C         0.199223         0.125200        -0.432091
 C         1.416821        -0.238718         0.457323
 C         1.260535        -0.848742         1.795466
 C         2.683794        -1.557239         2.239647
 C         3.783200        -0.753506         1.515513
 C         3.559810         0.525648         0.654431
 O         2.237614         0.934498         0.646092
 C         3.613352        -0.772834         0.005443
 O         2.199711        -1.041212        -0.452204
 H        -0.636295         0.711664         0.067915
 H         0.611624         0.682865        -1.270049
 H        -0.348380        -0.825886        -0.759612
 H         1.082570        -0.132962         2.556105
 H         0.477546        -1.708520         1.903762
 H         2.582774        -1.496562         3.314098
 H         2.766162        -2.517152         1.661543
 H         4.702897        -0.932044         1.935306
 H         4.242767         1.358864         0.438258
 H         4.376277        -1.241330        -0.687615
