19
Iteration:  3044charge 0 multiplicity 1
 C         0.213709         0.283336        -0.428807
 C         1.310810        -0.219871         0.379772
 C         1.293087        -1.054542         1.682365
 C         2.691984        -0.965569         2.405538
 C         3.821233        -0.858994         1.423213
 C         3.644139         0.385075         0.664698
 O         2.220829         0.767985         0.761339
 C         3.498003        -0.891984        -0.094451
 O         2.191386        -1.113150        -0.483898
 H        -0.301212         0.977650         0.223138
 H         0.691121         0.964839        -1.157531
 H        -0.234972        -0.600991        -0.900598
 H         0.526998        -0.758334         2.360374
 H         1.221322        -2.184432         1.609925
 H         2.712202        -0.019493         3.045022
 H         2.715810        -1.739398         3.177208
 H         4.849101        -1.161854         1.733199
 H         4.240075         1.242227         0.853025
 H         4.357626        -1.391416        -0.686548
