19
Iteration:  3486charge 0 multiplicity 1
 C         0.120026         0.224676        -0.300190
 C         1.465082        -0.249626         0.329580
 C         1.270688        -1.028184         1.725403
 C         2.637913        -1.009192         2.466514
 C         3.764956        -0.825423         1.471757
 C         3.595816         0.347283         0.633677
 O         2.310677         0.902555         0.660025
 C         3.557222        -0.982201        -0.029003
 O         2.227127        -1.061422        -0.560352
 H        -0.197984         1.147313         0.233747
 H         0.364293         0.446283        -1.453602
 H        -0.722603        -0.531914        -0.157354
 H         0.462999        -0.527362         2.219379
 H         0.908920        -2.102008         1.456760
 H         2.513265        -0.181393         3.214531
 H         2.709287        -1.925983         3.123306
 H         4.785283        -1.175588         1.802701
 H         4.482714         1.015308         0.272870
 H         4.208379        -1.408389        -0.795977
