19
Iteration:  4400charge 0 multiplicity 1
 C         0.160506         0.075716        -0.337062
 C         1.387174        -0.255548         0.362373
 C         1.248702        -0.635566         1.914918
 C         2.578436        -1.330413         2.503781
 C         3.804540        -0.892279         1.480766
 C         3.614210         0.360875         0.597513
 O         2.310301         0.973110         0.460855
 C         3.593312        -0.979114        -0.012368
 O         2.244024        -1.042723        -0.558539
 H        -0.501096         0.644585         0.228657
 H         0.343526         0.600673        -1.315832
 H        -0.400178        -0.779432        -0.604023
 H         0.964877         0.448010         2.450352
 H         0.332488        -1.140036         2.139177
 H         2.606101        -1.010036         3.575736
 H         2.546956        -2.368341         2.437530
 H         4.835730        -1.119555         1.687304
 H         4.481390         1.020360         0.522849
 H         4.338311        -1.363987        -0.601057
