19
Iteration:  2373
 C         0.293084         0.281410        -0.381233
 C         1.397512        -0.316772         0.394519
 C         1.282580        -1.130367         1.641476
 C         2.659889        -1.072834         2.353413
 C         3.765346        -0.758012         1.449793
 C         3.605189         0.439575         0.658734
 O         2.248586         0.833446         0.825288
 C         3.512936        -0.898408        -0.068833
 O         2.181388        -1.100833        -0.557367
 H         0.001440         1.137943         0.255529
 H         0.575757         0.751229        -1.313348
 H        -0.594812        -0.325109        -0.367976
 H         0.519305        -0.691107         2.318467
 H         0.920733        -2.126459         1.438194
 H         2.610325        -0.245492         3.129513
 H         2.724946        -1.953135         2.893863
 H         4.683894        -0.991322         1.920873
 H         4.267129         1.378488         0.690859
 H         4.268248        -1.257638        -0.742835
