19
Iteration:  1037charge 0 multiplicity 1
 C         0.135035         0.110298        -0.195224
 C         1.465206        -0.242185         0.286045
 C         1.281400        -1.057629         1.566319
 C         2.666661        -1.358526         2.338955
 C         3.788632        -0.732179         1.619790
 C         3.534624         0.465972         0.765775
 O         2.238163         0.924631         0.691822
 C         3.619787        -0.876433        -0.009014
 O         2.246641        -0.907464        -0.695575
 H        -0.328211         0.774246         0.509489
 H         0.112286         0.722284        -1.112488
 H        -0.378976        -0.849437        -0.244323
 H         0.653287        -0.496710         2.187262
 H         0.671221        -1.933273         1.391878
 H         2.580844        -0.810131         3.334279
 H         2.646168        -2.520029         2.554841
 H         4.846360        -0.889695         1.827219
 H         4.254323         1.264237         0.829088
 H         4.349506        -1.297384        -0.611780
