19
Iteration:   186charge 0 multiplicity 1
 C         0.160878         0.094303        -0.275945
 C         1.452805        -0.249256         0.473018
 C         1.184321        -0.874530         1.829010
 C         2.552588        -1.469849         2.065580
 C         3.791977        -0.760053         1.550452
 C         3.553996         0.533159         0.742774
 O         2.162886         0.917628         0.621904
 C         3.682946        -0.744682        -0.023711
 O         2.388749        -1.085410        -0.512273
 H        -0.414961         0.573263         0.516849
 H         0.381015         0.779825        -1.017532
 H        -0.304313        -0.724311        -0.674224
 H         0.945642         0.006941         2.398536
 H         0.463144        -1.685862         1.777901
 H         2.634054        -1.954396         3.060899
 H         2.500322        -2.233695         1.322567
 H         4.737336        -0.881920         2.035697
 H         4.214681         1.380145         0.351318
 H         4.521691        -0.978958        -0.769687
