19
Iteration:  3789
 C         0.084637         0.149988        -0.245549
 C         1.480382        -0.218646         0.356888
 C         1.206559        -0.906878         1.716385
 C         2.561141        -1.094175         2.445740
 C         3.778635        -0.867189         1.467903
 C         3.684421         0.330713         0.657523
 O         2.313899         0.929594         0.517692
 C         3.618799        -0.964569        -0.061446
 O         2.232537        -1.038863        -0.506860
 H        -0.078080         0.925612         0.476939
 H         0.100187         0.521761        -1.308056
 H        -0.634063        -0.651731        -0.111671
 H         0.641782        -0.114219         2.301420
 H         0.577761        -1.777984         1.610040
 H         2.682145        -0.466466         3.360505
 H         2.589935        -2.199486         2.744624
 H         4.736772        -1.119334         1.882532
 H         4.479499         0.987790         0.601686
 H         4.247370        -1.563923        -0.704599
