19
Iteration:  2832
 C         0.207455         0.244115        -0.203367
 C         1.496008        -0.193402         0.376266
 C         1.297714        -1.190925         1.621022
 C         2.547771        -1.004222         2.411524
 C         3.722777        -0.847565         1.453991
 C         3.628691         0.403218         0.622260
 O         2.305478         0.881030         0.653223
 C         3.566773        -0.910317        -0.107044
 O         2.160184        -1.057124        -0.466313
 H        -0.483353         0.555494         0.557926
 H         0.239725         1.005620        -1.087855
 H        -0.033845        -0.671650        -0.716119
 H         0.366722        -0.806056         2.136422
 H         1.176708        -2.146725         1.132844
 H         2.382713         0.009755         2.965600
 H         2.738080        -1.776400         3.156035
 H         4.751341        -1.049740         1.949397
 H         4.449904         1.077834         0.647602
 H         4.410505        -1.449259        -0.743571
