19
Iteration:   872
 C         0.185139         0.113964        -0.396916
 C         1.467866        -0.247745         0.412382
 C         1.329480        -0.939014         1.796184
 C         2.652821        -1.606216         2.200037
 C         3.744175        -0.810845         1.558772
 C         3.448159         0.570936         0.741455
 O         2.157900         0.970262         0.624866
 C         3.584031        -0.670628        -0.044923
 O         2.333791        -1.040778        -0.476937
 H        -0.444648         0.779852         0.207928
 H         0.580446         0.735389        -1.182825
 H        -0.281242        -0.794570        -0.718536
 H         1.089603        -0.188382         2.527303
 H         0.417585        -1.586829         1.897350
 H         2.881518        -1.666925         3.296949
 H         2.609778        -2.656141         1.830941
 H         4.809933        -0.962738         1.679706
 H         4.153076         1.443571         0.763494
 H         4.430871        -0.952423        -0.785600
