19
Iteration:    83
 C         0.182415         0.363515        -0.291849
 C         1.388962        -0.266396         0.388742
 C         1.329533        -1.235626         1.540531
 C         2.691535        -1.222367         2.331888
 C         3.831008        -0.809014         1.466860
 C         3.509411         0.455997         0.767821
 O         2.148489         0.914293         0.698261
 C         3.605034        -0.865093        -0.033639
 O         2.274831        -1.040290        -0.462340
 H        -0.486915         1.030141         0.294239
 H         0.506966         1.083295        -1.149585
 H        -0.667519        -0.323342        -0.689265
 H         0.496529        -1.075446         2.237708
 H         1.128151        -2.247299         1.145309
 H         2.577024        -0.515256         3.202083
 H         2.837004        -2.203531         2.842589
 H         4.961815        -0.906127         1.637705
 H         4.154474         1.275696         0.547672
 H         4.320505        -1.212534        -0.796913
