19
Iteration:   519
 C         0.177025         0.163412        -0.235646
 C         1.453105        -0.320118         0.302210
 C         1.288834        -1.188847         1.554351
 C         2.573162        -1.140543         2.357610
 C         3.835046        -0.839473         1.444289
 C         3.549560         0.471168         0.825787
 O         2.202080         0.869953         0.858759
 C         3.610096        -0.780132        -0.052674
 O         2.270872        -0.930088        -0.669363
 H        -0.286045         0.904064         0.446636
 H         0.307407         0.686638        -1.172500
 H        -0.533572        -0.570573        -0.537766
 H         0.343241        -1.023676         2.137960
 H         0.993416        -2.139832         1.042274
 H         2.618823        -0.454852         3.178529
 H         2.735021        -2.003772         2.880138
 H         4.771702        -1.038036         1.664454
 H         4.233099         1.259856         0.703753
 H         4.465687        -1.097764        -0.638162
