19
Iteration:  4596charge 0 multiplicity 1
 C         0.240838         0.280007        -0.311692
 C         1.453568        -0.258983         0.393725
 C         1.189312        -0.864428         1.759178
 C         2.600391        -1.005786         2.336937
 C         3.785565        -0.942458         1.459508
 C         3.554881         0.386420         0.520862
 O         2.310584         0.888303         0.676633
 C         3.586037        -1.019264        -0.070403
 O         2.227407        -1.166293        -0.439915
 H        -0.330516         0.981403         0.374435
 H         0.440388         0.838281        -1.218611
 H        -0.406803        -0.573709        -0.633483
 H         0.447662        -0.226539         2.366581
 H         0.724466        -1.781477         1.587784
 H         2.658556        -0.168496         3.204913
 H         2.665395        -1.897593         2.927431
 H         4.802707        -1.208869         1.772033
 H         4.230907         1.223937         0.631918
 H         4.292045        -1.709636        -0.774117
