19
Iteration:  3843
 C         0.238465         0.176347        -0.461830
 C         1.426680        -0.180514         0.510268
 C         1.268901        -0.815379         1.912981
 C         2.613660        -1.420987         2.275308
 C         3.747214        -0.771228         1.468759
 C         3.587672         0.494428         0.519756
 O         2.327932         0.971220         0.465552
 C         3.546985        -0.937508         0.013595
 O         2.136752        -1.136940        -0.285190
 H        -0.296534         1.047268        -0.133521
 H         0.886024         0.391211        -1.325400
 H        -0.353589        -0.706354        -0.668992
 H         1.065012         0.041750         2.666222
 H         0.413319        -1.480750         1.819031
 H         2.816777        -1.317148         3.349487
 H         2.626822        -2.524746         2.022188
 H         4.729307        -0.982377         1.853415
 H         4.422060         1.133538         0.461983
 H         4.153009        -1.545556        -0.706995
