19
Iteration:  3029charge 0 multiplicity 1
 C         0.259965         0.221770        -0.405976
 C         1.463500        -0.297818         0.440067
 C         1.278558        -1.070924         1.746189
 C         2.633604        -0.992972         2.458254
 C         3.769695        -0.926447         1.421129
 C         3.585800         0.431992         0.650829
 O         2.252893         0.940505         0.729414
 C         3.508539        -0.894084        -0.077120
 O         2.180384        -1.113808        -0.528418
 H        -0.628383         0.706532         0.136668
 H         0.667188         0.960212        -1.074742
 H        -0.199821        -0.645602        -0.981217
 H         0.422376        -0.597103         2.314359
 H         1.034415        -1.979190         1.328861
 H         2.747787        -0.166520         3.222460
 H         2.829159        -1.943026         2.996669
 H         4.727931        -1.308811         1.682978
 H         4.361068         1.191332         0.273988
 H         4.163901        -1.163096        -0.825023
