19
Iteration:  4850charge 0 multiplicity 1
 C         0.254756         0.191553        -0.346733
 C         1.476337        -0.287936         0.353235
 C         1.284376        -0.839655         1.823278
 C         2.590212        -1.132677         2.450519
 C         3.748922        -0.894972         1.409094
 C         3.646658         0.399190         0.648955
 O         2.285110         0.865191         0.601143
 C         3.518518        -0.896585        -0.038756
 O         2.144136        -1.116471        -0.505003
 H        -0.208781         1.000643         0.208903
 H         0.464138         0.611319        -1.389771
 H        -0.485563        -0.559215        -0.621283
 H         0.865810         0.051915         2.457540
 H         0.517081        -1.594048         1.883656
 H         2.769371        -0.366481         3.220853
 H         2.597010        -2.070520         2.861026
 H         4.744356        -1.366170         1.619089
 H         4.378485         1.181328         0.431749
 H         4.307955        -1.399443        -0.721430
