19
Iteration:  4558charge 0 multiplicity 1
 C         0.178989         0.323497        -0.290021
 C         1.439148        -0.189458         0.359249
 C         1.257508        -1.023906         1.740083
 C         2.592913        -1.082120         2.483991
 C         3.806855        -0.771905         1.519001
 C         3.625786         0.306772         0.580353
 O         2.330837         0.923036         0.470534
 C         3.521105        -1.068814        -0.007815
 O         2.169519        -1.085615        -0.488709
 H        -0.217023         1.157698         0.289618
 H         0.557556         0.759000        -1.266106
 H        -0.557986        -0.469332        -0.414434
 H         0.527492        -0.601007         2.389122
 H         1.077963        -2.180319         1.507727
 H         2.703080        -0.329293         3.173835
 H         2.662197        -2.063916         3.044766
 H         4.736184        -1.067854         1.996161
 H         4.358797         1.120998         0.515391
 H         4.134397        -1.710161        -0.487015
