19
Iteration:  2279
 C         0.160412         0.207381        -0.314875
 C         1.436407        -0.205299         0.401642
 C         1.278511        -0.839305         1.765251
 C         2.630625        -1.476907         2.221199
 C         3.768553        -0.805482         1.470639
 C         3.532254         0.527547         0.768918
 O         2.243470         0.944551         0.486820
 C         3.620462        -0.814448        -0.005004
 O         2.264473        -1.193805        -0.410610
 H        -0.498575         0.736620         0.400564
 H         0.510867         0.837433        -1.078587
 H        -0.254531        -0.806323        -0.573556
 H         1.000888        -0.055057         2.461823
 H         0.376030        -1.469897         1.530644
 H         2.727744        -1.222729         3.311846
 H         2.694055        -2.645385         2.191389
 H         4.727440        -0.826326         1.982968
 H         4.270888         1.343461         0.849480
 H         4.248762        -1.084891        -0.907329
