19
Iteration:   247
 C         0.203189         0.057177        -0.352035
 C         1.452307        -0.178978         0.425085
 C         1.308328        -1.067186         1.671500
 C         2.633723        -1.347754         2.381985
 C         3.734224        -0.825820         1.461573
 C         3.571658         0.456724         0.771010
 O         2.271650         0.946319         0.783638
 C         3.567624        -0.750671        -0.151220
 O         2.209376        -0.918329        -0.611223
 H        -0.647571         0.508252         0.201776
 H         0.335889         0.733476        -1.286675
 H        -0.223428        -0.971595        -0.531864
 H         0.520534        -0.711084         2.348508
 H         0.764815        -1.969944         1.361503
 H         2.716167        -0.982728         3.415001
 H         2.773188        -2.443923         2.539323
 H         4.722062        -0.925868         1.818137
 H         4.336536         1.259604         0.700948
 H         4.410406        -1.111109        -0.734438
