19
Iteration:  2052
 C         0.173786         0.240449        -0.228446
 C         1.437109        -0.263703         0.347133
 C         1.307430        -0.899583         1.768477
 C         2.591622        -1.504866         2.205967
 C         3.729230        -0.783837         1.557912
 C         3.532610         0.514520         0.747016
 O         2.162012         0.975250         0.439618
 C         3.688488        -0.778184        -0.018380
 O         2.333247        -1.159255        -0.425724
 H        -0.534425         0.662941         0.564208
 H         0.384475         0.847466        -1.100883
 H        -0.461928        -0.659881        -0.643379
 H         0.995553        -0.089816         2.437159
 H         0.416740        -1.525922         1.700267
 H         2.695847        -1.702432         3.340156
 H         2.531728        -2.466837         1.738011
 H         4.703489        -0.712038         1.926489
 H         4.299277         1.319448         0.914198
 H         4.580341        -1.083216        -0.574696
