19
Iteration:  2005
 C         0.236278        -0.014242        -0.453682
 C         1.458577        -0.120645         0.483041
 C         1.256707        -0.856909         1.805061
 C         2.598576        -1.465664         2.188638
 C         3.759200        -0.872183         1.410901
 C         3.546989         0.509664         0.800509
 O         2.269297         1.035712         0.672523
 C         3.530856        -0.819236        -0.094533
 O         2.257544        -1.030398        -0.380259
 H        -0.620836         0.497073        -0.062754
 H         0.582424         0.275559        -1.482660
 H        -0.156947        -0.992094        -0.573274
 H         0.776972        -0.151471         2.430168
 H         0.351649        -1.624011         1.664104
 H         2.897014        -1.269869         3.231502
 H         2.686117        -2.523630         2.058495
 H         4.831445        -1.074398         1.737511
 H         4.334391         1.185884         0.694470
 H         4.298536        -0.784076        -0.957908
