19
Iteration:  2810charge 0 multiplicity 1
 C         0.151419         0.201428        -0.331900
 C         1.358422        -0.325328         0.382418
 C         1.290509        -1.090376         1.705306
 C         2.639179        -0.984739         2.470008
 C         3.784382        -0.896718         1.449683
 C         3.601486         0.417194         0.634243
 O         2.303589         0.917315         0.768016
 C         3.538054        -0.927956        -0.017203
 O         2.216195        -1.022184        -0.639920
 H        -0.476181         0.798714         0.293957
 H         0.590564         0.966987        -1.110732
 H        -0.332225        -0.506228        -1.000313
 H         0.459164        -0.729920         2.405389
 H         1.132220        -2.106422         1.312226
 H         2.600314        -0.030542         3.126146
 H         2.908792        -1.853376         3.074277
 H         4.727835        -1.415538         1.833194
 H         4.418101         1.077793         0.352489
 H         4.346979        -1.303418        -0.759710
