19
Iteration:  3535
 C         0.164390         0.247089        -0.277654
 C         1.405735        -0.314121         0.401613
 C         1.232101        -0.994217         1.731855
 C         2.620040        -1.024123         2.453207
 C         3.785794        -0.875840         1.471539
 C         3.630152         0.442091         0.593841
 O         2.320410         0.906411         0.581147
 C         3.590037        -0.993849        -0.009358
 O         2.211370        -1.112297        -0.577535
 H        -0.406405         0.793706         0.527849
 H         0.452097         0.934555        -1.007940
 H        -0.544640        -0.474637        -0.704008
 H         0.382201        -0.597707         2.373934
 H         0.993373        -1.955295         1.429240
 H         2.615624        -0.200531         3.195730
 H         2.685145        -1.953759         3.047275
 H         4.677256        -1.024284         2.036029
 H         4.286650         1.229691         0.486326
 H         4.271687        -1.364677        -0.745289
