19
Iteration:  4087
 C         0.238597         0.238602        -0.394442
 C         1.434972        -0.225353         0.445154
 C         1.167350        -0.816003         1.848864
 C         2.624590        -1.360317         2.353836
 C         3.813527        -0.756419         1.490591
 C         3.579792         0.474777         0.529851
 O         2.342708         0.951375         0.415618
 C         3.534810        -0.912666        -0.039572
 O         2.188638        -1.232934        -0.229820
 H        -0.381885         0.907404         0.200546
 H         0.735386         0.859649        -1.187218
 H        -0.237209        -0.600425        -0.885067
 H         0.855564        -0.091905         2.579445
 H         0.277005        -1.619614         1.792186
 H         2.725444        -1.068663         3.364208
 H         2.519651        -2.460459         2.251318
 H         4.859607        -0.861350         1.881151
 H         4.395369         1.111053         0.203533
 H         4.083414        -1.441462        -0.894711
