19
Iteration:   819charge 0 multiplicity 1
 C         0.145842         0.074937        -0.331436
 C         1.471319        -0.233471         0.380964
 C         1.224859        -1.104804         1.612554
 C         2.599060        -1.400591         2.272719
 C         3.766473        -0.735902         1.565870
 C         3.605507         0.516041         0.708650
 O         2.254126         0.985058         0.815721
 C         3.607345        -0.760852        -0.071682
 O         2.251864        -0.954718        -0.561163
 H        -0.379307         0.750442         0.359184
 H         0.324138         0.275749        -1.373181
 H        -0.380354        -0.856893        -0.466062
 H         0.627067        -0.592857         2.369157
 H         0.591208        -2.115505         1.394860
 H         2.698343        -1.100828         3.282719
 H         2.745409        -2.418509         2.282961
 H         4.809752        -0.851636         1.861232
 H         4.511635         1.229523         0.547508
 H         4.367956        -1.113092        -0.892833
