19
Iteration:  1845
 C         0.181741         0.185565        -0.314774
 C         1.415856        -0.193681         0.346833
 C         1.312089        -0.957907         1.750171
 C         2.610172        -1.437949         2.206100
 C         3.801707        -0.795450         1.487473
 C         3.555938         0.472866         0.739083
 O         2.203531         0.974100         0.547478
 C         3.614534        -0.766255         0.022732
 O         2.276224        -1.093626        -0.385638
 H        -0.477123         0.620855         0.449128
 H         0.297815         0.634516        -1.336204
 H        -0.190565        -0.823925        -0.547576
 H         0.636337        -0.344330         2.435759
 H         0.661113        -1.790566         1.619190
 H         2.721986        -1.360131         3.279821
 H         2.512469        -2.496001         1.905948
 H         4.834087        -0.972879         1.870983
 H         4.237218         1.308740         0.768128
 H         4.245382        -1.000245        -0.799237
