19
Iteration:   435
 C         0.128596         0.187956        -0.278564
 C         1.456895        -0.248467         0.365888
 C         1.189821        -0.981121         1.799559
 C         2.618323        -1.564238         2.174137
 C         3.747733        -0.775000         1.426544
 C         3.468588         0.552214         0.811160
 O         2.182930         0.943736         0.568250
 C         3.679663        -0.656574        -0.075664
 O         2.444345        -1.113453        -0.434601
 H        -0.460009         0.725290         0.534533
 H         0.294802         0.921466        -1.047658
 H        -0.525061        -0.678403        -0.531950
 H         0.894042        -0.259262         2.510482
 H         0.485618        -1.748612         1.630138
 H         2.893699        -1.554487         3.232153
 H         2.677840        -2.549921         1.601324
 H         4.672331        -0.914802         2.029604
 H         4.096774         1.342340         1.044500
 H         4.519081        -0.801222        -0.736228
