19
Iteration:  4333charge 0 multiplicity 1
 C         0.173389         0.378503        -0.381933
 C         1.486067        -0.290127         0.416294
 C         1.209053        -0.888548         1.784996
 C         2.640556        -1.222776         2.428407
 C         3.771215        -0.668709         1.501595
 C         3.623120         0.412558         0.570609
 O         2.321051         0.881576         0.513079
 C         3.550205        -0.963073        -0.038326
 O         2.162716        -1.310170        -0.424677
 H        -0.169953         1.233369         0.174382
 H         0.589865         0.665576        -1.331797
 H        -0.641250        -0.323436        -0.549863
 H         0.707160         0.006749         2.407088
 H         0.481247        -1.637830         1.853759
 H         2.837791        -0.814753         3.449328
 H         2.622074        -2.257294         2.588651
 H         4.824625        -0.878211         1.742380
 H         4.319616         1.245562         0.537964
 H         4.301818        -1.544387        -0.584840
