19
Iteration:   676
 C         0.146089         0.141722        -0.238407
 C         1.431184        -0.277144         0.333339
 C         1.266667        -1.056352         1.684921
 C         2.612540        -1.515168         2.184015
 C         3.722301        -0.656835         1.580637
 C         3.556480         0.547507         0.706050
 O         2.190492         0.970905         0.677233
 C         3.671382        -0.749648        -0.021810
 O         2.329810        -1.040063        -0.543251
 H        -0.162267         0.720005         0.619103
 H         0.322948         0.651318        -1.210920
 H        -0.472026        -0.757998        -0.443061
 H         0.799508        -0.286008         2.304490
 H         0.540138        -1.952478         1.665737
 H         2.627892        -1.673096         3.253590
 H         2.789312        -2.443173         1.688144
 H         4.784683        -0.778153         2.083097
 H         4.089018         1.446262         0.771149
 H         4.533448        -1.079002        -0.537461
