19
Iteration:  1691
 C         0.144164         0.325068        -0.233736
 C         1.452942        -0.281828         0.385888
 C         1.261426        -1.241610         1.568392
 C         2.568922        -1.108917         2.437624
 C         3.801553        -0.754139         1.463055
 C         3.576661         0.422822         0.699281
 O         2.246769         0.856435         0.710144
 C         3.582277        -0.824256        -0.071798
 O         2.301297        -1.067129        -0.581835
 H        -0.233635         0.932090         0.584779
 H         0.413767         1.052950        -1.032413
 H        -0.482427        -0.514783        -0.457406
 H         0.270636        -1.004052         2.187455
 H         1.146239        -2.204187         1.072626
 H         2.430220        -0.260875         3.157263
 H         2.736524        -2.050395         3.022738
 H         4.808471        -1.020929         1.747702
 H         4.253904         1.210879         0.467225
 H         4.291049        -1.274419        -0.703891
