19
Iteration:  1012charge 0 multiplicity 1
 C         0.124638         0.259520        -0.211895
 C         1.410943        -0.274338         0.368132
 C         1.280444        -1.242353         1.585444
 C         2.664199        -1.269711         2.431809
 C         3.721248        -0.827319         1.498216
 C         3.556156         0.524209         0.713926
 O         2.200668         0.899716         0.649185
 C         3.597772        -0.771120        -0.022856
 O         2.361381        -0.986384        -0.617853
 H        -0.238600         1.080312         0.474762
 H         0.354201         0.888111        -1.086068
 H        -0.607439        -0.511602        -0.453350
 H         0.379079        -1.022121         2.170952
 H         0.940293        -2.154907         1.312253
 H         2.709789        -0.666691         3.348248
 H         2.661150        -2.341637         2.750701
 H         4.728356        -1.037618         1.737183
 H         4.372297         1.337176         0.636496
 H         4.501492        -1.026040        -0.665034
