19
Iteration:  4972charge 0 multiplicity 1
 C         0.178105         0.136503        -0.428975
 C         1.470182        -0.126920         0.487497
 C         1.220196        -0.839651         1.850475
 C         2.557574        -1.234165         2.395953
 C         3.767148        -0.783618         1.451644
 C         3.649639         0.352296         0.473589
 O         2.364219         0.909585         0.613815
 C         3.538980        -0.970359        -0.098663
 O         2.212384        -1.078883        -0.355042
 H        -0.583230         0.778259         0.131761
 H         0.294321         0.678125        -1.339965
 H        -0.322694        -0.822542        -0.760526
 H         0.719958        -0.230099         2.595033
 H         0.533385        -1.700871         1.663547
 H         2.464616        -0.809257         3.362400
 H         2.683099        -2.265927         2.471129
 H         4.728969        -1.078044         1.755441
 H         4.414935         1.085807         0.170110
 H         4.321364        -1.389897        -0.677373
