19
Iteration:   207charge 0 multiplicity 1
 C         0.152088         0.236773        -0.356248
 C         1.444392        -0.259647         0.358648
 C         1.284378        -0.939944         1.754554
 C         2.656452        -1.582849         2.130620
 C         3.780188        -0.712491         1.510254
 C         3.463019         0.531497         0.742154
 O         2.176302         0.955526         0.644298
 C         3.650986        -0.708984        -0.018099
 O         2.307340        -1.182373        -0.395801
 H        -0.554825         0.635952         0.404522
 H         0.360945         1.034800        -1.021296
 H        -0.288421        -0.531027        -0.899101
 H         1.097363        -0.106854         2.416947
 H         0.559415        -1.754975         1.714276
 H         2.736167        -1.514278         3.273823
 H         2.757076        -2.573466         1.764020
 H         4.771543        -0.748714         1.907209
 H         4.256185         1.385992         0.862132
 H         4.442911        -1.029049        -0.773017
