19
Iteration:  3673
 C         0.191278         0.134790        -0.351186
 C         1.432988        -0.128036         0.399634
 C         1.285814        -0.790563         1.758601
 C         2.644507        -1.372128         2.411178
 C         3.775381        -0.897405         1.480677
 C         3.601650         0.464165         0.598296
 O         2.274407         1.007317         0.464875
 C         3.553207        -0.970826         0.064512
 O         2.192878        -1.071450        -0.420218
 H        -0.481054         0.847405         0.249487
 H         0.260967         0.339159        -1.433103
 H        -0.322495        -0.878499        -0.214548
 H         0.625680        -0.163401         2.417000
 H         0.696523        -1.783424         1.455766
 H         2.729734        -0.965878         3.428138
 H         2.705722        -2.460415         2.474982
 H         4.807737        -0.896883         1.680201
 H         4.444740         1.050922         0.562385
 H         4.295052        -1.391570        -0.592998
