19
Iteration:  2509charge 0 multiplicity 1
 C         0.178376         0.153203        -0.327093
 C         1.433514        -0.227420         0.378301
 C         1.259507        -0.915709         1.804805
 C         2.624015        -1.412142         2.290348
 C         3.727765        -0.753312         1.525629
 C         3.599627         0.499662         0.604084
 O         2.246987         1.002637         0.532330
 C         3.633001        -0.909799        -0.040388
 O         2.221319        -1.086851        -0.371216
 H        -0.241954         1.004980         0.237280
 H         0.473358         0.781433        -1.279345
 H        -0.461660        -0.682784        -0.583362
 H         0.687897        -0.372603         2.507270
 H         0.627540        -1.752136         1.492662
 H         2.851442        -1.355961         3.291726
 H         2.691731        -2.530241         2.016903
 H         4.741781        -0.922402         1.906745
 H         4.362702         1.332375         0.681502
 H         4.359351        -1.420779        -0.590923
