19
Iteration:  4697
 C         0.246148         0.251152        -0.382778
 C         1.377737        -0.171142         0.389312
 C         1.254578        -0.834385         1.801903
 C         2.652200        -1.284798         2.310650
 C         3.743482        -0.805386         1.488021
 C         3.552088         0.353495         0.591543
 O         2.300361         0.952898         0.506015
 C         3.567597        -0.995177         0.036284
 O         2.191601        -1.163229        -0.363296
 H        -0.088754         1.197836         0.035444
 H         0.448258         0.581211        -1.418771
 H        -0.569058        -0.476973        -0.298722
 H         0.930023         0.050109         2.437315
 H         0.660232        -1.667878         1.849184
 H         2.767312        -0.910300         3.415917
 H         2.771609        -2.387294         2.375759
 H         4.792178        -0.948686         1.762010
 H         4.419477         0.986043         0.365165
 H         4.323892        -1.284934        -0.541886
