19
Iteration:  4777charge 0 multiplicity 1
 C         0.151799         0.291392        -0.301109
 C         1.449723        -0.164820         0.369259
 C         1.290593        -0.790305         1.876364
 C         2.590147        -1.255120         2.412334
 C         3.688554        -0.819614         1.518753
 C         3.597717         0.388838         0.610419
 O         2.330151         0.921894         0.470330
 C         3.591535        -1.007841        -0.015281
 O         2.272061        -1.194524        -0.541808
 H        -0.548944         0.624603         0.505329
 H         0.088031         0.944253        -1.197795
 H        -0.485949        -0.551955        -0.630489
 H         0.794566        -0.073084         2.451017
 H         0.567306        -1.705322         1.711716
 H         2.729213        -0.779636         3.411561
 H         2.765989        -2.456306         2.604675
 H         4.546833        -1.084110         2.138427
 H         4.353888         1.131952         0.445126
 H         4.296506        -1.456836        -0.867979
