19
Iteration:   135charge 0 multiplicity 1
 C         0.172338         0.052068        -0.395024
 C         1.439005        -0.204528         0.392284
 C         1.260473        -0.945355         1.784890
 C         2.710747        -1.463104         2.269171
 C         3.784197        -0.922271         1.497538
 C         3.533413         0.476806         0.803384
 O         2.198025         1.002933         0.653826
 C         3.582458        -0.799575         0.016743
 O         2.260662        -0.884719        -0.596719
 H        -0.477222         0.877449         0.096443
 H         0.315911         0.405691        -1.500461
 H        -0.374085        -0.991801        -0.263885
 H         0.756292        -0.224126         2.492187
 H         0.679665        -1.841538         1.547413
 H         2.884696        -1.183159         3.292468
 H         2.725621        -2.620371         2.310080
 H         4.883403        -1.102119         1.796063
 H         4.241622         1.308110         0.818433
 H         4.289298        -0.894331        -0.845746
