19
Iteration:  1119
 C         0.143455         0.239940        -0.371186
 C         1.428456        -0.305288         0.387088
 C         1.234265        -1.000832         1.758697
 C         2.653359        -1.518704         2.203156
 C         3.809761        -0.717378         1.489631
 C         3.519485         0.579931         0.712814
 O         2.157838         0.940655         0.643509
 C         3.641880        -0.833253         0.002351
 O         2.321817        -1.063643        -0.428962
 H        -0.506648         0.759243         0.373658
 H         0.625513         0.823414        -1.127144
 H        -0.392448        -0.589615        -0.808664
 H         1.057839         0.010226         2.331029
 H         0.473907        -1.825954         1.907058
 H         2.904192        -1.409433         3.251424
 H         2.568861        -2.605601         1.923506
 H         4.790804        -0.740153         1.838513
 H         4.315674         1.332623         0.484014
 H         4.373978        -1.175751        -0.707909
