19
Iteration:  3230charge 0 multiplicity 1
 C         0.054276         0.118794        -0.219859
 C         1.463840        -0.274525         0.339319
 C         1.289228        -0.916173         1.738231
 C         2.588828        -1.110633         2.405508
 C         3.752797        -0.893134         1.526400
 C         3.657144         0.361752         0.688807
 O         2.359236         0.960987         0.510696
 C         3.585467        -0.951379        -0.025301
 O         2.233831        -1.028758        -0.582809
 H        -0.540475         0.632245         0.518628
 H         0.099004         0.825387        -1.122530
 H        -0.511273        -0.722652        -0.599479
 H         0.613796        -0.264667         2.194887
 H         0.617207        -1.788511         1.555966
 H         2.543678        -0.465041         3.330897
 H         2.700865        -2.084428         2.846894
 H         4.677081        -0.998836         2.086907
 H         4.384168         1.232042         0.641549
 H         4.293066        -1.355681        -0.661912
