19
Iteration:  2569charge 0 multiplicity 1
 C         0.166683         0.157739        -0.279716
 C         1.453490        -0.165569         0.409752
 C         1.252205        -1.133981         1.641167
 C         2.628377        -1.075866         2.475103
 C         3.756415        -0.893426         1.466781
 C         3.654638         0.361644         0.700813
 O         2.287962         0.917127         0.643102
 C         3.492305        -0.847932        -0.072765
 O         2.237555        -0.992830        -0.600849
 H        -0.368275         1.001280         0.153173
 H         0.485795         0.260887        -1.258618
 H        -0.652980        -0.611842        -0.256687
 H         0.463840        -0.690791         2.398192
 H         0.956825        -2.191612         1.428716
 H         2.703932        -0.106812         3.139089
 H         2.822672        -1.923325         3.083916
 H         4.663028        -1.440168         1.778099
 H         4.362957         1.154486         0.658307
 H         4.362223        -1.125491        -0.813530
