19
Iteration:  3205
 C         0.177244         0.157533        -0.274310
 C         1.492983        -0.247638         0.374351
 C         1.225647        -0.769079         1.785626
 C         2.611140        -1.282475         2.408674
 C         3.730450        -0.829238         1.479280
 C         3.589827         0.444598         0.591288
 O         2.277654         0.945051         0.537576
 C         3.547480        -0.929207        -0.022867
 O         2.305323        -1.157710        -0.487611
 H        -0.557985         0.435891         0.479444
 H         0.280932         0.958504        -1.007913
 H        -0.248646        -0.689884        -0.823688
 H         0.610909         0.076192         2.298391
 H         0.415431        -1.466518         1.689208
 H         2.639292        -1.013011         3.463728
 H         2.715726        -2.363661         2.466335
 H         4.754776        -1.147016         1.800237
 H         4.201955         1.271340         0.464854
 H         4.425196        -1.252007        -0.653158
