19
Iteration:  1942
 C         0.146973         0.341404        -0.168990
 C         1.491964        -0.359419         0.377413
 C         1.286786        -1.228558         1.532488
 C         2.567731        -1.187859         2.457793
 C         3.805444        -0.752258         1.537619
 C         3.587907         0.465413         0.682294
 O         2.199984         0.888935         0.588276
 C         3.597418        -0.842718        -0.040197
 O         2.292230        -1.021774        -0.575298
 H        -0.177433         0.954699         0.734679
 H         0.391119         1.005408        -1.102418
 H        -0.605490        -0.412048        -0.577369
 H         0.387191        -0.890219         2.080819
 H         1.012650        -2.213962         1.139070
 H         2.366057        -0.500037         3.394528
 H         2.571555        -2.200447         2.869914
 H         4.812285        -1.009757         1.938798
 H         4.212873         1.303234         0.645209
 H         4.403230        -1.201292        -0.792158
