19
Iteration:  4831
 C         0.171750         0.199861        -0.360392
 C         1.425325        -0.188133         0.439954
 C         1.165719        -0.783636         1.775769
 C         2.661021        -1.117654         2.411490
 C         3.818071        -0.870382         1.449681
 C         3.569820         0.313996         0.528222
 O         2.322478         0.935952         0.698819
 C         3.562387        -1.041751        -0.058039
 O         2.239045        -1.127935        -0.483382
 H        -0.489364         0.935702         0.157963
 H         0.489303         0.733371        -1.292308
 H        -0.298206        -0.750043        -0.691731
 H         0.486354        -0.131446         2.241576
 H         0.509866        -1.737787         1.611992
 H         2.771283        -0.584239         3.354971
 H         2.760063        -2.245256         2.563910
 H         4.789530        -0.847856         1.937210
 H         4.390783         0.976610         0.490721
 H         4.176582        -1.483806        -0.972201
