19
Iteration:   617
 C         0.215465         0.002443        -0.416761
 C         1.394633        -0.277829         0.399130
 C         1.306208        -0.889156         1.802289
 C         2.649380        -1.528027         2.191788
 C         3.717698        -0.778055         1.449115
 C         3.504724         0.531028         0.860714
 O         2.210197         0.915969         0.732961
 C         3.596064        -0.713198        -0.093192
 O         2.302269        -0.912439        -0.554945
 H        -0.580043         0.605846         0.047373
 H         0.577123         0.591815        -1.232127
 H        -0.247217        -0.965698        -0.606916
 H         1.180945         0.069595         2.465037
 H         0.538995        -1.786446         2.030989
 H         2.767121        -1.498458         3.271380
 H         2.733666        -2.562585         1.978197
 H         4.632698        -1.122341         1.687099
 H         4.115912         1.461295         0.833655
 H         4.525602        -1.063928        -0.554833
