19
Iteration:  4869
 C         0.142749         0.247329        -0.340378
 C         1.392060        -0.203081         0.377180
 C         1.227866        -0.891451         1.789366
 C         2.672706        -1.179062         2.498465
 C         3.738051        -0.902493         1.484356
 C         3.626943         0.367419         0.664864
 O         2.348022         0.999372         0.479247
 C         3.536786        -0.989938        -0.102428
 O         2.221512        -1.149138        -0.482917
 H        -0.307695         1.074269         0.172424
 H         0.438101         0.431863        -1.384569
 H        -0.638309        -0.504938        -0.342845
 H         0.581907        -0.259433         2.499887
 H         0.840516        -1.848843         1.669904
 H         2.929652        -0.541207         3.396949
 H         2.615108        -2.244641         2.906319
 H         4.756538        -1.045473         1.900661
 H         4.394695         1.197724         0.609671
 H         4.288619        -1.306594        -0.749725
