19
Iteration:  4714charge 0 multiplicity 1
 C         0.207859         0.216190        -0.435357
 C         1.454268        -0.189538         0.462959
 C         1.276489        -0.813601         1.846961
 C         2.609848        -1.356089         2.459134
 C         3.821628        -0.866410         1.482200
 C         3.626895         0.492873         0.637119
 O         2.318114         0.991909         0.424047
 C         3.481425        -0.968768        -0.068777
 O         2.138959        -1.135592        -0.361163
 H        -0.176929         1.235759        -0.155708
 H         0.650085         0.298636        -1.406630
 H        -0.470928        -0.654427        -0.503286
 H         0.783446        -0.242023         2.643900
 H         0.516453        -1.629399         1.500476
 H         2.858100        -1.059797         3.432005
 H         2.561785        -2.455003         2.455623
 H         4.804450        -1.117825         1.896825
 H         4.393349         1.237511         0.521173
 H         4.081280        -1.542939        -0.914827
