19
Iteration:    12
 C         0.017709         0.148603        -0.299577
 C         1.447869        -0.268558         0.375114
 C         1.205107        -1.017016         1.659746
 C         2.668089        -1.296876         2.304318
 C         3.814328        -0.898718         1.442919
 C         3.591461         0.444641         0.814942
 O         2.281932         0.958213         0.747805
 C         3.622100        -0.720904        -0.130754
 O         2.328505        -0.998781        -0.535168
 H        -0.689176         0.541443         0.455181
 H        -0.077671         0.716915        -1.179777
 H        -0.445246        -0.840637        -0.488769
 H         0.493364        -0.472873         2.282461
 H         0.744959        -1.946242         1.334222
 H         2.741419        -0.714170         3.212919
 H         2.737270        -2.359653         2.585844
 H         4.790219        -1.262910         1.697490
 H         4.280280         1.259077         0.662188
 H         4.322902        -1.015780        -0.877167
