19
Iteration:  1270charge 0 multiplicity 1
 C         0.096430         0.083825        -0.245294
 C         1.476414        -0.237493         0.357637
 C         1.268539        -0.965034         1.657490
 C         2.621791        -1.334560         2.364741
 C         3.755231        -0.880853         1.492314
 C         3.591577         0.439489         0.775099
 O         2.214691         0.926018         0.606611
 C         3.577024        -0.828449        -0.055102
 O         2.341880        -0.911041        -0.586359
 H        -0.364453         0.778027         0.482419
 H         0.133217         0.747830        -1.062352
 H        -0.395603        -0.850759        -0.384257
 H         0.689723        -0.417738         2.313634
 H         0.616723        -1.858313         1.482669
 H         2.535510        -0.720472         3.285349
 H         2.817820        -2.474231         2.619640
 H         4.741394        -0.969412         1.744908
 H         4.375949         1.180181         0.885050
 H         4.360665        -1.030236        -0.775671
