19
Iteration:  2707
 C         0.246465         0.093583        -0.322839
 C         1.423787        -0.220547         0.388889
 C         1.282531        -0.710376         1.851375
 C         2.580294        -1.565533         2.257293
 C         3.740042        -0.800429         1.525010
 C         3.507809         0.500179         0.680114
 O         2.214584         0.952507         0.511862
 C         3.654705        -0.766721        -0.085047
 O         2.261436        -1.148819        -0.388607
 H        -0.303272         0.928183         0.287873
 H         0.639514         0.371349        -1.322469
 H        -0.528134        -0.770645        -0.410382
 H         1.232030         0.257773         2.312849
 H         0.269430        -1.081743         1.928949
 H         2.868960        -1.525382         3.292693
 H         2.490800        -2.706264         1.908311
 H         4.796518        -0.888169         1.790509
 H         4.335632         1.159821         0.738326
 H         4.408616        -1.023707        -0.949576
