19
Iteration:  4073
 C         0.261445         0.225820        -0.432463
 C         1.408735        -0.265880         0.396531
 C         1.352025        -0.762360         1.871846
 C         2.643301        -1.263237         2.355314
 C         3.717169        -0.833903         1.489391
 C         3.601479         0.372194         0.598619
 O         2.253437         0.980579         0.468575
 C         3.524467        -0.973202         0.006686
 O         2.157176        -1.176074        -0.363270
 H        -0.578693         0.708871         0.198705
 H         0.654983         0.879961        -1.156310
 H        -0.363906        -0.588751        -0.931588
 H         0.970679         0.135738         2.433280
 H         0.654727        -1.625236         1.971909
 H         2.872337        -0.865059         3.376071
 H         2.783831        -2.360327         2.401738
 H         4.710247        -1.105204         1.885281
 H         4.366058         1.083044         0.447075
 H         4.308354        -1.188710        -0.658452
