19
Iteration:    99
 C         0.243524         0.285214        -0.266117
 C         1.449094        -0.278354         0.348428
 C         1.174017        -1.134324         1.598312
 C         2.626837        -1.250876         2.274608
 C         3.853333        -0.769793         1.436240
 C         3.533347         0.551483         0.704376
 O         2.190399         0.877736         0.815208
 C         3.573254        -0.785547        -0.046193
 O         2.291212        -1.159510        -0.526666
 H        -0.117429         0.890790         0.566504
 H         0.375936         0.787032        -1.143979
 H        -0.456058        -0.450035        -0.452207
 H         0.405102        -0.701425         2.262546
 H         0.817268        -2.121548         1.253160
 H         2.668077        -0.659962         3.181492
 H         2.843847        -2.282615         2.480512
 H         4.712534        -1.025431         1.958190
 H         4.281949         1.386020         0.548423
 H         4.378340        -0.789450        -0.780098
