19
Iteration:  2804
 C         0.131599         0.238520        -0.368551
 C         1.372878        -0.334923         0.330867
 C         1.326529        -1.067910         1.756077
 C         2.672372        -0.999022         2.459425
 C         3.785139        -0.907876         1.514296
 C         3.578220         0.400778         0.628620
 O         2.301243         0.873787         0.765641
 C         3.557743        -0.903318        -0.065494
 O         2.173966        -0.993216        -0.619635
 H        -0.571168         0.798917         0.286489
 H         0.603272         0.771967        -1.126936
 H        -0.324450        -0.575547        -0.964258
 H         0.479165        -0.617397         2.233996
 H         1.022253        -2.120257         1.426531
 H         2.656140        -0.182693         3.147132
 H         2.842404        -1.941705         3.016745
 H         4.718242        -1.261649         1.916843
 H         4.436766         1.002301         0.342214
 H         4.493286        -1.134958        -0.591452
