19
Iteration:  1195
 C         0.175659         0.162848        -0.379360
 C         1.462292        -0.279522         0.380369
 C         1.247074        -1.092300         1.643513
 C         2.663718        -1.199403         2.397193
 C         3.769965        -0.857156         1.439449
 C         3.542757         0.496236         0.761312
 O         2.225800         0.873741         0.843934
 C         3.585009        -0.776498        -0.140261
 O         2.258053        -1.003657        -0.588320
 H        -0.230406         0.948740         0.274312
 H         0.485414         0.661121        -1.284589
 H        -0.439200        -0.647701        -0.667133
 H         0.610022        -0.559975         2.316919
 H         0.729813        -2.045371         1.468023
 H         2.692731        -0.647795         3.347884
 H         2.811122        -2.182617         2.928524
 H         4.709689        -1.214121         1.605094
 H         4.242951         1.308803         0.589462
 H         4.344472        -1.048769        -0.807603
