19
Iteration:  2357charge 0 multiplicity 1
 C         0.178545         0.303919        -0.397551
 C         1.430044        -0.236381         0.382812
 C         1.249024        -1.200167         1.699374
 C         2.616514        -1.062172         2.413716
 C         3.849903        -0.941964         1.421674
 C         3.574005         0.411783         0.651535
 O         2.227136         0.885859         0.776654
 C         3.570453        -0.844261        -0.069389
 O         2.225870        -1.015744        -0.477513
 H        -0.303982         1.190046         0.044735
 H         0.744434         0.381509        -1.374362
 H        -0.554662        -0.529744        -0.549889
 H         0.415445        -0.752265         2.320206
 H         0.993428        -2.244624         1.264865
 H         2.559275        -0.037736         2.973776
 H         2.786705        -1.864218         3.260293
 H         4.916354        -1.251783         1.630356
 H         4.274583         1.116287         0.347624
 H         4.352347        -1.156251        -0.837106
