19
Iteration:  3411charge 0 multiplicity 1
 C         0.239892         0.147992        -0.382827
 C         1.399029        -0.176767         0.409191
 C         1.275273        -0.790260         1.836419
 C         2.677432        -1.385611         2.259364
 C         3.731444        -0.737342         1.491222
 C         3.583412         0.474793         0.623500
 O         2.253059         0.970064         0.424119
 C         3.525215        -0.943635         0.052785
 O         2.237985        -1.188751        -0.303042
 H        -0.339853         0.680903         0.356950
 H         0.631375         0.816904        -1.250154
 H        -0.468387        -0.642622        -0.605402
 H         1.023621         0.097826         2.435127
 H         0.535252        -1.526005         1.964272
 H         2.759369        -1.571316         3.343847
 H         2.457097        -2.442555         1.931550
 H         4.775229        -0.897507         1.809464
 H         4.423585         1.204573         0.325778
 H         4.221236        -1.347045        -0.638502
