19
Iteration:  4428charge 0 multiplicity 1
 C         0.189415         0.169349        -0.297580
 C         1.447447        -0.209679         0.365721
 C         1.258591        -0.685030         1.747370
 C         2.571987        -1.286393         2.336108
 C         3.736144        -0.788538         1.430100
 C         3.598167         0.361284         0.629764
 O         2.363541         0.969062         0.476973
 C         3.586413        -0.917916        -0.018846
 O         2.192353        -1.230203        -0.323302
 H        -0.508316         0.647325         0.458549
 H         0.242236         0.785031        -1.198839
 H        -0.380539        -0.760022        -0.580478
 H         0.881405         0.009793         2.398291
 H         0.426107        -1.495388         1.784630
 H         2.562971        -0.973189         3.383431
 H         2.667625        -2.423799         2.307214
 H         4.740133        -0.962760         1.843975
 H         4.500735         0.941824         0.576313
 H         4.375516        -1.364124        -0.661487
