19
Iteration:  2148charge 0 multiplicity 1
 C         0.204618         0.333274        -0.305217
 C         1.426787        -0.243934         0.387368
 C         1.259965        -1.229255         1.626677
 C         2.603354        -1.079261         2.389590
 C         3.790278        -0.835545         1.413385
 C         3.580413         0.442410         0.707778
 O         2.255849         0.843399         0.745613
 C         3.573135        -0.859432        -0.069677
 O         2.258906        -1.067316        -0.495589
 H        -0.373230         1.015352         0.320979
 H         0.437221         0.769358        -1.218214
 H        -0.547606        -0.421293        -0.588548
 H         0.307025        -0.958226         2.068231
 H         1.089727        -2.341574         1.254877
 H         2.494202        -0.193274         3.050696
 H         2.732148        -1.919054         3.024021
 H         4.782677        -1.013826         1.692150
 H         4.361186         1.247385         0.527431
 H         4.277145        -1.002822        -0.840258
