19
Iteration:  2302
 C         0.060041         0.160151        -0.224914
 C         1.465110        -0.269412         0.261926
 C         1.233486        -0.928122         1.787340
 C         2.562546        -1.312751         2.340495
 C         3.763394        -0.811695         1.548823
 C         3.621026         0.439335         0.627845
 O         2.264809         0.956544         0.565251
 C         3.617554        -0.866974         0.022520
 O         2.366792        -1.007349        -0.568496
 H        -0.349243         0.716700         0.643791
 H         0.140497         0.873049        -1.042756
 H        -0.549889        -0.792202        -0.368455
 H         0.607400        -0.237392         2.393937
 H         0.578354        -1.845766         1.501822
 H         2.604303        -1.026555         3.473062
 H         2.590446        -2.468915         2.362968
 H         4.751796        -1.177066         1.935135
 H         4.359324         1.172235         0.591670
 H         4.347824        -1.377123        -0.731180
