19
Iteration:  1468
 C         0.213113         0.365224        -0.315329
 C         1.401001        -0.343768         0.374300
 C         1.296334        -1.210196         1.648685
 C         2.643971        -1.212702         2.377147
 C         3.801625        -0.701818         1.548082
 C         3.514489         0.516307         0.586045
 O         2.268934         0.895002         0.747285
 C         3.523764        -0.880959        -0.026758
 O         2.246572        -1.072881        -0.518244
 H        -0.319362         0.862116         0.477379
 H         0.745976         0.855868        -1.176041
 H        -0.498551        -0.332048        -0.710764
 H         0.424025        -0.972538         2.266945
 H         1.131495        -2.265564         1.100708
 H         2.553394        -0.568618         3.213207
 H         2.761201        -2.269293         2.610529
 H         4.893552        -1.059104         1.859428
 H         4.221112         1.269633         0.272863
 H         4.163051        -1.114839        -0.793496
