19
Iteration:  2846charge 0 multiplicity 1
 C         0.099261         0.228368        -0.177706
 C         1.426800        -0.224027         0.420758
 C         1.250813        -1.100876         1.608630
 C         2.555658        -1.066489         2.412784
 C         3.753147        -0.832650         1.532095
 C         3.651541         0.387953         0.644140
 O         2.355451         0.944331         0.546580
 C         3.584958        -0.930731        -0.028306
 O         2.256785        -1.084989        -0.551934
 H        -0.541675         0.617157         0.622736
 H         0.397153         0.966971        -0.875674
 H        -0.511245        -0.549925        -0.589524
 H         0.361771        -0.996888         2.281626
 H         1.093710        -2.187932         1.181295
 H         2.539600        -0.214411         3.160753
 H         2.632943        -1.975748         2.972013
 H         4.762025        -1.033074         1.957970
 H         4.362783         1.172426         0.412605
 H         4.302798        -1.143261        -0.906596
