19
Iteration:  2372
 C         0.293410         0.281192        -0.382446
 C         1.394281        -0.317968         0.404115
 C         1.287258        -1.132182         1.633690
 C         2.658088        -1.073975         2.347815
 C         3.770759        -0.766752         1.456699
 C         3.601862         0.435377         0.656725
 O         2.247842         0.835914         0.825556
 C         3.509886        -0.898238        -0.075274
 O         2.189482        -1.094436        -0.552327
 H        -0.021819         1.163673         0.217963
 H         0.545167         0.766376        -1.355012
 H        -0.579933        -0.332744        -0.384789
 H         0.524394        -0.692983         2.363744
 H         0.903253        -2.168069         1.465570
 H         2.585092        -0.178678         3.132580
 H         2.750322        -1.935641         2.917160
 H         4.681710        -1.018260         1.914506
 H         4.270241         1.377084         0.685303
 H         4.213683        -1.239859        -0.740152
