19
Iteration:   641charge 0 multiplicity 1
 C         0.174214         0.030697        -0.353589
 C         1.430684        -0.163172         0.395502
 C         1.288664        -0.974062         1.740628
 C         2.635012        -1.619939         2.140539
 C         3.816329        -0.882276         1.502598
 C         3.462588         0.526290         0.772810
 O         2.125226         1.124971         0.562976
 C         3.657852        -0.674682        -0.024926
 O         2.341544        -1.047968        -0.379595
 H        -0.462320         0.756929         0.177131
 H         0.395779         0.715552        -1.196961
 H        -0.529468        -0.831475        -0.483853
 H         1.042703        -0.189929         2.534461
 H         0.597675        -1.955649         1.802684
 H         2.730469        -1.689871         3.211455
 H         2.617551        -2.630554         1.869523
 H         4.789462        -0.972260         2.051241
 H         4.309277         1.274780         0.853660
 H         4.511773        -0.671266        -0.752045
