19
Iteration:  1222charge 0 multiplicity 1
 C         0.248466         0.331552        -0.348488
 C         1.411286        -0.261733         0.452997
 C         1.202215        -1.229282         1.596522
 C         2.673433        -1.190313         2.315211
 C         3.873671        -0.850382         1.407325
 C         3.494836         0.509611         0.735098
 O         2.159905         0.901955         0.733929
 C         3.631767        -0.799130        -0.110771
 O         2.233189        -1.099303        -0.394638
 H        -0.236632         1.192697         0.142212
 H         0.699178         0.963394        -1.226584
 H        -0.398335        -0.514974        -0.785861
 H         0.370789        -1.186818         2.434027
 H         0.936050        -2.242887         1.196356
 H         2.730852        -0.368991         3.117792
 H         2.754150        -2.169911         2.793648
 H         4.994272        -0.980199         1.805426
 H         4.183402         1.356422         0.603112
 H         4.300589        -1.074731        -0.990168
