19
Iteration:  4382charge 0 multiplicity 1
 C         0.119721         0.071279        -0.411677
 C         1.514543        -0.138319         0.373510
 C         1.332917        -0.698086         1.832259
 C         2.609943        -1.298663         2.436860
 C         3.681685        -0.857010         1.523745
 C         3.623594         0.380155         0.655338
 O         2.382995         0.977736         0.466505
 C         3.512435        -0.952571        -0.058206
 O         2.164969        -1.111702        -0.448260
 H        -0.589027         0.783389         0.146005
 H         0.345698         0.431231        -1.413700
 H        -0.395362        -0.931300        -0.489193
 H         1.057691         0.018921         2.519284
 H         0.537480        -1.508799         2.098790
 H         2.845332        -0.952259         3.438028
 H         2.566787        -2.454791         2.557575
 H         4.630048        -1.069845         2.042768
 H         4.446294         1.106494         0.597695
 H         4.109292        -1.412972        -0.932926
