19
Iteration:  4817charge 0 multiplicity 1
 C         0.140433         0.220296        -0.405319
 C         1.435692        -0.132531         0.370648
 C         1.228554        -0.892925         1.788428
 C         2.583006        -1.191698         2.362651
 C         3.774545        -0.821474         1.465468
 C         3.698514         0.391068         0.583710
 O         2.377684         0.964922         0.598426
 C         3.544274        -1.003403        -0.027997
 O         2.135190        -1.170441        -0.376209
 H        -0.562832         0.666392         0.289916
 H         0.360955         0.895171        -1.299575
 H        -0.329272        -0.732324        -0.679965
 H         0.692854        -0.350410         2.650452
 H         0.776056        -1.825504         1.586269
 H         2.775832        -0.681462         3.327537
 H         2.598329        -2.168582         2.634295
 H         4.809912        -1.136990         1.762237
 H         4.464867         1.104743         0.230087
 H         4.403243        -1.370519        -0.621746
