19
Iteration:  1170charge 0 multiplicity 1
 C         0.062089         0.001206        -0.285456
 C         1.469386        -0.180434         0.398271
 C         1.292631        -1.044804         1.659556
 C         2.614575        -1.327809         2.307587
 C         3.718729        -0.839334         1.550071
 C         3.608488         0.448169         0.682145
 O         2.276642         0.963553         0.670913
 C         3.569025        -0.846932         0.004831
 O         2.303449        -0.829190        -0.630594
 H        -0.385159         0.679679         0.439689
 H         0.188646         0.467352        -1.265154
 H        -0.461723        -0.959098        -0.466820
 H         0.755767        -0.454662         2.350350
 H         0.669260        -1.958870         1.489578
 H         2.718214        -0.976823         3.370865
 H         2.710387        -2.410837         2.691721
 H         4.751602        -1.058129         1.928302
 H         4.418643         1.194764         0.721921
 H         4.392580        -1.236853        -0.631555
