19
Iteration:  4797charge 0 multiplicity 1
 C         0.238849         0.223585        -0.248003
 C         1.470385        -0.197799         0.404567
 C         1.221470        -0.877712         1.710293
 C         2.633054        -1.247973         2.446397
 C         3.777281        -0.890772         1.476220
 C         3.603344         0.390440         0.603796
 O         2.316827         0.990679         0.370605
 C         3.498891        -0.945066         0.027540
 O         2.169817        -1.121335        -0.355220
 H        -0.597389         0.671361         0.272163
 H         0.642650         0.904461        -1.085356
 H        -0.331263        -0.489844        -0.842152
 H         0.667696        -0.180499         2.313166
 H         0.595077        -1.743822         1.360326
 H         2.768258        -0.776619         3.451276
 H         2.646312        -2.352900         2.681929
 H         4.871488        -1.007870         1.698126
 H         4.452043         1.050904         0.655868
 H         4.235557        -1.497061        -0.717595
