19
Iteration:   743
 C         0.223990         0.118573        -0.334776
 C         1.456542        -0.270082         0.391933
 C         1.256567        -1.245747         1.531891
 C         2.599092        -1.187589         2.346346
 C         3.812877        -0.871020         1.496205
 C         3.570191         0.542989         0.614560
 O         2.217862         0.909810         0.913924
 C         3.545418        -0.769698        -0.037162
 O         2.262878        -0.852542        -0.554596
 H        -0.485422         0.462551         0.462312
 H         0.385689         0.726942        -1.231606
 H        -0.212633        -0.801325        -0.732770
 H         0.569756        -0.835121         2.249598
 H         1.020584        -2.254687         1.072848
 H         2.416118        -0.482731         3.130211
 H         2.754084        -2.152320         2.768654
 H         4.746897        -1.430547         1.737787
 H         4.317908         1.338915         0.466819
 H         4.276106        -1.340725        -0.688436
