19
Iteration:  2466charge 0 multiplicity 1
 C         0.156458         0.023942        -0.447678
 C         1.421239        -0.282263         0.428628
 C         1.285173        -0.692837         1.890252
 C         2.596567        -1.397605         2.244989
 C         3.780465        -0.836895         1.439444
 C         3.579220         0.467109         0.725365
 O         2.243812         0.966606         0.594260
 C         3.591155        -0.848899        -0.054284
 O         2.282924        -1.069392        -0.421035
 H        -0.637116         0.604310         0.080519
 H         0.438965         0.926361        -1.132691
 H        -0.346876        -0.832525        -0.876825
 H         1.093140         0.242943         2.434083
 H         0.499853        -1.404446         2.239603
 H         2.749703        -1.679803         3.234592
 H         2.486276        -2.425539         1.693154
 H         4.821486        -0.952872         1.732290
 H         4.370895         1.236543         0.911190
 H         4.230900        -1.315272        -0.720782
