19
Iteration:  1991charge 0 multiplicity 1
 C         0.203723         0.001691        -0.377470
 C         1.433007        -0.145919         0.422950
 C         1.193835        -0.900031         1.735099
 C         2.612280        -1.416919         2.263875
 C         3.805646        -0.917936         1.409325
 C         3.608095         0.449545         0.731246
 O         2.240306         1.004667         0.661623
 C         3.641572        -0.709104        -0.052708
 O         2.208811        -0.994577        -0.443141
 H        -0.415738         0.718615         0.084351
 H         0.484999         0.352652        -1.346076
 H        -0.134048        -0.991986        -0.529797
 H         0.751222        -0.380367         2.672651
 H         0.593807        -1.844153         1.543124
 H         2.643787        -0.978082         3.203502
 H         2.570247        -2.526828         2.508255
 H         4.765689        -1.097967         1.912848
 H         4.386687         1.299979         0.740024
 H         4.245435        -1.095175        -0.787252
