19
Iteration:   702charge 0 multiplicity 1
 C         0.154816         0.122956        -0.349045
 C         1.427367        -0.238837         0.355035
 C         1.302179        -1.070830         1.665831
 C         2.674612        -1.418617         2.337606
 C         3.790518        -0.908266         1.419856
 C         3.524755         0.520439         0.834604
 O         2.140229         0.924705         0.678459
 C         3.621004        -0.696867        -0.040872
 O         2.309494        -0.949509        -0.541155
 H        -0.317849         0.797822         0.392520
 H         0.433993         0.653583        -1.247455
 H        -0.386981        -0.751041        -0.653883
 H         0.639258        -0.477233         2.295425
 H         0.658237        -1.860595         1.589686
 H         2.795373        -0.899498         3.342282
 H         2.745468        -2.550554         2.603115
 H         4.776985        -0.991426         1.719160
 H         4.072276         1.512373         0.918111
 H         4.500355        -0.810971        -0.749544
