19
Iteration:  1704
 C         0.206545         0.357343        -0.189041
 C         1.388288        -0.262120         0.383336
 C         1.344172        -1.253998         1.566882
 C         2.604988        -1.122484         2.334978
 C         3.749976        -0.929124         1.525738
 C         3.576103         0.530982         0.627540
 O         2.162974         0.900708         0.633411
 C         3.613999        -0.819262        -0.042209
 O         2.292838        -1.117293        -0.511258
 H        -0.298555         0.916682         0.565925
 H         0.484818         0.972043        -1.081473
 H        -0.578448        -0.165198        -0.647612
 H         0.490881        -1.007679         2.349929
 H         1.177990        -2.270019         1.250959
 H         2.453920        -0.277557         3.050749
 H         2.726617        -2.062009         3.024877
 H         4.767233        -1.169493         1.984696
 H         4.288138         1.393373         0.729011
 H         4.441103        -0.943738        -0.588971
