19
Iteration:  4507charge 0 multiplicity 1
 C         0.077172         0.165749        -0.299359
 C         1.449587        -0.219093         0.398850
 C         1.163757        -0.760201         1.755551
 C         2.597989        -1.065378         2.392480
 C         3.791416        -0.952903         1.386804
 C         3.631822         0.350149         0.645154
 O         2.357544         0.840225         0.585939
 C         3.567571        -1.005675        -0.054913
 O         2.278334        -1.061621        -0.472473
 H        -0.341191         1.057242         0.123739
 H         0.281758         0.383686        -1.419325
 H        -0.582342        -0.690617        -0.191054
 H         0.667363         0.058063         2.249411
 H         0.612081        -1.654737         1.708953
 H         2.832131        -0.301927         3.240744
 H         2.764075        -2.044556         2.845810
 H         4.623516        -1.230472         1.998763
 H         4.418875         1.115512         0.755139
 H         4.259063        -1.364166        -0.742852
