19
Iteration:  3506charge 0 multiplicity 1
 C         0.225618         0.257495        -0.293631
 C         1.429268        -0.184441         0.445001
 C         1.306284        -1.112321         1.653079
 C         2.594391        -0.975054         2.496819
 C         3.770482        -0.876669         1.508056
 C         3.660441         0.415459         0.517444
 O         2.321309         0.896260         0.583193
 C         3.479485        -0.958201        -0.020579
 O         2.162048        -1.116004        -0.499645
 H        -0.377732         1.039650         0.188916
 H         0.471033         0.661392        -1.306667
 H        -0.607967        -0.460711        -0.398826
 H         0.391953        -1.081942         2.219892
 H         1.295811        -2.165795         1.110564
 H         2.546823        -0.201268         3.286342
 H         2.763814        -1.908801         3.045560
 H         4.742593        -1.040503         2.034524
 H         4.339292         1.302114         0.560458
 H         4.166550        -1.481299        -0.669164
