19
Iteration:  1399charge 0 multiplicity 1
 C         0.111650        -0.000705        -0.268592
 C         1.512026        -0.186757         0.363937
 C         1.298886        -0.947785         1.670981
 C         2.597510        -1.355620         2.390841
 C         3.732455        -0.800527         1.475021
 C         3.624631         0.422450         0.692693
 O         2.314990         0.964738         0.694298
 C         3.525630        -0.871458        -0.010149
 O         2.248754        -0.872542        -0.616667
 H        -0.563792         0.678246         0.335217
 H         0.295416         0.312116        -1.299373
 H        -0.549604        -0.909363        -0.343466
 H         0.569397        -0.367488         2.263627
 H         0.828383        -1.976176         1.342396
 H         2.656195        -0.741733         3.270200
 H         2.674985        -2.390545         2.608466
 H         4.660603        -1.068516         1.836040
 H         4.338952         1.263944         0.702933
 H         4.298472        -1.434870        -0.652320
