19
Iteration:   152
 C         0.128949        -0.032338        -0.352261
 C         1.463377        -0.084390         0.374366
 C         1.430701        -0.893380         1.684936
 C         2.635805        -1.611281         2.303494
 C         3.780867        -0.911130         1.471805
 C         3.494524         0.471917         0.880092
 O         2.216640         1.104792         0.587832
 C         3.543007        -0.726959        -0.025908
 O         2.258363        -0.966162        -0.507534
 H        -0.638882         0.604362        -0.033436
 H         0.334012         0.313744        -1.335725
 H        -0.340623        -0.942048        -0.398175
 H         1.049270        -0.211146         2.426972
 H         0.564833        -1.564712         1.631307
 H         2.660181        -1.511279         3.432567
 H         2.657084        -2.634043         2.089471
 H         4.734156        -1.060471         1.822984
 H         4.357467         1.200201         0.840231
 H         4.353104        -1.004131        -0.714502
