19
Iteration:  3913
 C         0.130912         0.055711        -0.279445
 C         1.472173        -0.132458         0.413499
 C         1.309702        -0.746452         1.801947
 C         2.562854        -1.252213         2.539368
 C         3.699233        -0.890991         1.503646
 C         3.637869         0.315840         0.610952
 O         2.380479         1.014077         0.476445
 C         3.517176        -1.015438        -0.044276
 O         2.201097        -1.031107        -0.597217
 H        -0.577589         0.651080         0.374967
 H         0.467950         0.639080        -1.156339
 H        -0.294467        -0.931607        -0.625773
 H         0.759962         0.013513         2.276885
 H         0.702356        -1.705083         1.707844
 H         2.642704        -0.815709         3.567804
 H         2.618157        -2.431448         2.616801
 H         4.763688        -1.029854         1.798392
 H         4.370391         1.140009         0.534013
 H         4.341121        -1.317143        -0.633696
