19
Iteration:  4681charge 0 multiplicity 1
 C         0.130463         0.304255        -0.297188
 C         1.499677        -0.242131         0.345618
 C         1.218288        -0.748182         1.779339
 C         2.585287        -1.252756         2.359407
 C         3.796834        -0.782631         1.488096
 C         3.673223         0.446834         0.576624
 O         2.273733         0.913570         0.594491
 C         3.579959        -1.004368        -0.013401
 O         2.248762        -1.292398        -0.450938
 H        -0.316679         1.143470         0.295281
 H         0.422331         0.510267        -1.334145
 H        -0.760431        -0.366985        -0.350669
 H         0.709105         0.113537         2.281437
 H         0.367431        -1.591830         1.756453
 H         2.616216        -0.929939         3.341320
 H         2.551138        -2.350064         2.378993
 H         4.768167        -0.917797         1.978375
 H         4.298009         1.324175         0.421032
 H         4.243952        -1.590868        -0.842314
