19
Iteration:  2851charge 0 multiplicity 1
 C         0.064096         0.233531        -0.177068
 C         1.428722        -0.220249         0.377922
 C         1.242349        -1.117086         1.654897
 C         2.576811        -1.093292         2.422821
 C         3.780902        -0.835704         1.552413
 C         3.678091         0.423878         0.650489
 O         2.315933         0.963075         0.534063
 C         3.549390        -0.968260        -0.042822
 O         2.291140        -1.079530        -0.560909
 H        -0.435918         0.684080         0.708102
 H         0.382167         0.985972        -0.967621
 H        -0.579236        -0.558184        -0.653226
 H         0.328176        -0.824724         2.179476
 H         1.103628        -2.092240         1.280202
 H         2.593600        -0.318395         3.164333
 H         2.488709        -2.104889         2.949304
 H         4.808723        -1.041968         1.810658
 H         4.431918         1.201820         0.423038
 H         4.381688        -1.198798        -0.648806
