19
Iteration:  2913charge 0 multiplicity 1
 C         0.161980         0.039861        -0.499679
 C         1.444002        -0.149864         0.420642
 C         1.280402        -0.759221         1.805150
 C         2.610466        -1.490391         2.183431
 C         3.769670        -0.805843         1.370401
 C         3.560955         0.505572         0.628833
 O         2.303773         0.985484         0.663109
 C         3.569768        -0.837408        -0.028799
 O         2.242847        -1.123078        -0.216978
 H        -0.371875         0.992859        -0.307928
 H         0.463175         0.067750        -1.490518
 H        -0.657168        -0.687462        -0.343360
 H         0.953144         0.013569         2.504391
 H         0.384483        -1.567303         1.837489
 H         2.839384        -1.228299         3.223563
 H         2.607406        -2.596834         2.129010
 H         4.688404        -0.941773         1.858020
 H         4.401238         1.255507         0.703191
 H         4.238708        -1.191760        -0.718915
