19
Iteration:  2560charge 0 multiplicity 1
 C         0.145316         0.184816        -0.280424
 C         1.442095        -0.240517         0.353325
 C         1.264279        -1.049857         1.721028
 C         2.616987        -1.078680         2.438097
 C         3.723318        -0.996983         1.390993
 C         3.592805         0.457378         0.747585
 O         2.286483         0.910655         0.634454
 C         3.542426        -0.880383        -0.058927
 O         2.286919        -0.997759        -0.577645
 H        -0.266050         1.068740         0.161958
 H         0.198679         0.403333        -1.318366
 H        -0.504060        -0.668495        -0.062341
 H         0.381175        -0.772867         2.352364
 H         1.029760        -2.082486         1.377613
 H         2.836765        -0.243408         3.232608
 H         2.666247        -1.982226         3.011401
 H         4.813802        -1.066336         1.648730
 H         4.385537         1.224140         0.715416
 H         4.414248        -1.291364        -0.688736
