19
Iteration:  3663charge 0 multiplicity 1
 C         0.137539         0.083303        -0.319258
 C         1.531278        -0.177790         0.349749
 C         1.333653        -0.798977         1.802602
 C         2.602277        -1.379167         2.366391
 C         3.717016        -0.803105         1.508841
 C         3.621231         0.441474         0.664624
 O         2.314409         1.059241         0.445603
 C         3.522877        -0.942637        -0.016101
 O         2.196512        -1.139938        -0.397859
 H        -0.224384         1.028731         0.206895
 H         0.407426         0.446923        -1.305238
 H        -0.567422        -0.821539        -0.328035
 H         0.760931        -0.155081         2.569311
 H         0.544758        -1.627991         1.571522
 H         2.668531        -1.187127         3.448276
 H         2.521707        -2.463923         2.245290
 H         4.702843        -0.993617         1.886354
 H         4.262180         1.234846         0.501013
 H         4.219224        -1.299547        -0.759125
