19
Iteration:  1409charge 0 multiplicity 1
 C         0.099320         0.038126        -0.241148
 C         1.482692        -0.184398         0.379212
 C         1.292494        -1.047853         1.603942
 C         2.598959        -1.252598         2.441256
 C         3.796030        -0.935749         1.509757
 C         3.602819         0.462711         0.761525
 O         2.292537         1.006078         0.663968
 C         3.540918        -0.889428        -0.098224
 O         2.261944        -0.888433        -0.617941
 H        -0.590845         0.835574         0.121549
 H         0.137635         0.323005        -1.282032
 H        -0.250324        -1.046328        -0.255790
 H         0.627840        -0.369674         2.197172
 H         0.653453        -1.984021         1.457922
 H         2.543258        -0.674408         3.372260
 H         2.664608        -2.179642         2.933404
 H         4.775888        -1.219344         1.633342
 H         4.377372         1.260766         0.816514
 H         4.292713        -1.164610        -0.924520
