19
Iteration:  1810charge 0 multiplicity 1
 C         0.150115         0.154341        -0.320681
 C         1.498355        -0.328714         0.359939
 C         1.308597        -0.875433         1.836894
 C         2.559944        -1.583878         2.100263
 C         3.723716        -0.741683         1.574386
 C         3.524356         0.548373         0.645118
 O         2.193793         1.052262         0.531348
 C         3.643997        -0.830345         0.016545
 O         2.298794        -1.087215        -0.393176
 H        -0.456261         0.730050         0.394802
 H         0.402950         0.871841        -1.214592
 H        -0.383984        -0.755323        -0.554914
 H         1.328694        -0.032600         2.478545
 H         0.548491        -1.575029         2.065060
 H         2.798708        -1.797898         3.170223
 H         2.560840        -2.526919         1.617182
 H         4.710627        -0.793124         2.131802
 H         4.317181         1.348029         0.803242
 H         4.436310        -1.074916        -0.569989
