19
Iteration:  4298charge 0 multiplicity 1
 C         0.141099         0.167173        -0.340176
 C         1.467527        -0.159942         0.384741
 C         1.245519        -0.865993         1.764086
 C         2.622494        -1.143351         2.514361
 C         3.755771        -0.896649         1.516668
 C         3.619162         0.345852         0.611063
 O         2.374609         0.952907         0.511334
 C         3.538327        -0.992226        -0.088317
 O         2.174666        -1.110138        -0.460093
 H        -0.448321         1.064370        -0.013037
 H         0.343905         0.471050        -1.324770
 H        -0.594976        -0.656724        -0.481332
 H         0.653939        -0.075022         2.305689
 H         0.672158        -1.801561         1.595420
 H         2.711665        -0.313300         3.202207
 H         2.724614        -2.119348         3.009115
 H         4.802630        -1.052621         1.863991
 H         4.473549         1.017368         0.571347
 H         4.253092        -1.536168        -0.814344
