19
Iteration:  2770
 C         0.192440         0.149323        -0.296948
 C         1.486203        -0.243057         0.431114
 C         1.222025        -0.946660         1.724148
 C         2.633722        -1.258225         2.315355
 C         3.706938        -0.858460         1.410573
 C         3.587740         0.463498         0.674819
 O         2.262378         1.031136         0.610710
 C         3.602047        -0.874695        -0.017453
 O         2.231076        -1.126976        -0.477251
 H        -0.436585         0.912642         0.143805
 H         0.553540         0.577283        -1.208857
 H        -0.425802        -0.707496        -0.397705
 H         0.524292        -0.424510         2.394553
 H         0.736411        -1.976364         1.591163
 H         2.878842        -0.699345         3.226607
 H         2.671435        -2.276814         2.639911
 H         4.730664        -1.120249         1.782080
 H         4.272847         1.251750         0.576832
 H         4.481574        -1.237583        -0.699475
