19
Iteration:  1221charge 0 multiplicity 1
 C         0.247819         0.336138        -0.346412
 C         1.408661        -0.270590         0.448357
 C         1.204665        -1.223873         1.602783
 C         2.670088        -1.188086         2.304357
 C         3.873542        -0.864123         1.403486
 C         3.497462         0.514926         0.737792
 O         2.153521         0.904409         0.737337
 C         3.633130        -0.799833        -0.108339
 O         2.234933        -1.099487        -0.396244
 H        -0.247363         1.185898         0.151909
 H         0.710713         0.935267        -1.256357
 H        -0.357876        -0.523699        -0.774722
 H         0.355885        -1.175131         2.448406
 H         0.960358        -2.223420         1.211860
 H         2.710579        -0.393487         3.120025
 H         2.764307        -2.121442         2.815781
 H         5.004908        -0.957820         1.799605
 H         4.200818         1.346835         0.622768
 H         4.309314        -1.066369        -1.007967
