19
Iteration:  4079charge 0 multiplicity 1
 C         0.251590         0.220110        -0.417343
 C         1.403561        -0.260949         0.425428
 C         1.296936        -0.788784         1.866566
 C         2.632605        -1.315284         2.334523
 C         3.734663        -0.794249         1.483140
 C         3.574118         0.405160         0.560268
 O         2.300035         0.968608         0.433103
 C         3.524284        -0.925871         0.003852
 O         2.176427        -1.187417        -0.289093
 H        -0.375573         0.848566         0.161399
 H         0.683429         0.961819        -1.165017
 H        -0.244995        -0.546072        -0.961586
 H         0.828388         0.068510         2.368954
 H         0.636871        -1.640914         2.037200
 H         2.777799        -1.024111         3.392948
 H         2.836625        -2.394231         2.454592
 H         4.612587        -1.134275         2.018579
 H         4.490618         1.025286         0.274965
 H         4.170360        -1.205144        -0.877284
