19
Iteration:  3045
 C         0.205128         0.288354        -0.431180
 C         1.304309        -0.221982         0.373548
 C         1.295092        -1.060512         1.684594
 C         2.688244        -0.969771         2.404789
 C         3.822818        -0.851036         1.426157
 C         3.635686         0.387348         0.666786
 O         2.228301         0.767876         0.762362
 C         3.505828        -0.899640        -0.096471
 O         2.193001        -1.110191        -0.481032
 H        -0.266848         0.979987         0.217153
 H         0.688998         0.992108        -1.171147
 H        -0.232820        -0.601062        -0.858199
 H         0.523566        -0.719743         2.356670
 H         1.224318        -2.223862         1.609874
 H         2.713529        -0.037898         3.006034
 H         2.728693        -1.722638         3.208584
 H         4.859473        -1.150609         1.734180
 H         4.230494         1.225615         0.844924
 H         4.353418        -1.402415        -0.703677
