19
Iteration:  3092charge 0 multiplicity 1
 C         0.113789         0.170860        -0.203159
 C         1.538074        -0.200770         0.348241
 C         1.280427        -0.991032         1.644090
 C         2.601119        -1.218097         2.452622
 C         3.699698        -0.774102         1.482413
 C         3.633305         0.429823         0.711305
 O         2.324250         0.938760         0.468412
 C         3.565939        -0.962278        -0.048658
 O         2.209500        -1.052562        -0.487147
 H        -0.197091         1.114969         0.222217
 H         0.033736         0.357379        -1.287290
 H        -0.439953        -0.743282        -0.089106
 H         0.492329        -0.532418         2.357819
 H         0.852668        -1.987049         1.309568
 H         2.480095        -0.666283         3.329319
 H         2.705575        -2.271758         2.792026
 H         4.693411        -0.826674         1.915328
 H         4.384169         1.272539         0.755641
 H         4.327903        -1.403273        -0.571562
