19
Iteration:  1140charge 0 multiplicity 1
 C         0.143667         0.099703        -0.264618
 C         1.486468        -0.145209         0.384708
 C         1.240230        -0.957128         1.703317
 C         2.627857        -1.449863         2.246473
 C         3.763065        -0.883615         1.517675
 C         3.548382         0.527988         0.757079
 O         2.231025         0.996887         0.534833
 C         3.615537        -0.699851        -0.047468
 O         2.297509        -1.124952        -0.466078
 H        -0.382098         0.555570         0.609007
 H         0.267829         0.739746        -1.099365
 H        -0.415682        -0.803991        -0.388414
 H         0.679852        -0.377959         2.440585
 H         0.781476        -1.858442         1.228731
 H         2.717491        -1.167501         3.324586
 H         2.503655        -2.587999         2.074708
 H         4.710245        -0.867784         1.932183
 H         4.250551         1.332805         1.062339
 H         4.387484        -0.872166        -0.770438
