19
Iteration:  1097charge 0 multiplicity 1
 C         0.250408         0.193262        -0.486918
 C         1.387217        -0.263934         0.412583
 C         1.338409        -0.912989         1.807271
 C         2.682270        -1.490456         2.223024
 C         3.802889        -0.698037         1.533299
 C         3.468725         0.500757         0.720762
 O         2.180027         0.925281         0.750667
 C         3.552314        -0.755226        -0.066544
 O         2.225534        -1.094735        -0.476934
 H        -0.505704         0.744598         0.136592
 H         0.745191         0.715104        -1.310366
 H        -0.207879        -0.690993        -0.951194
 H         0.956713        -0.175166         2.661815
 H         0.728060        -1.884425         1.750817
 H         2.872234        -1.566305         3.307816
 H         2.777620        -2.540539         1.906293
 H         4.742215        -1.144422         1.707814
 H         4.260085         1.298361         0.530815
 H         4.404718        -0.976365        -0.748785
