19
Iteration:   337
 C         0.077211         0.243824        -0.320437
 C         1.396389        -0.227453         0.424662
 C         1.270653        -1.240059         1.551793
 C         2.672853        -1.309077         2.359228
 C         3.798875        -0.737194         1.494326
 C         3.551543         0.472399         0.712038
 O         2.238376         0.911583         0.756862
 C         3.621500        -0.794676        -0.042929
 O         2.292350        -0.978463        -0.559351
 H        -0.445638         0.916403         0.401686
 H         0.483212         0.761094        -1.143786
 H        -0.509916        -0.629620        -0.536539
 H         0.557812        -0.919973         2.274470
 H         0.884833        -2.177498         1.194271
 H         2.508834        -0.867657         3.312315
 H         2.877968        -2.327531         2.557971
 H         4.852134        -0.897113         1.802212
 H         4.268129         1.337021         0.710526
 H         4.419768        -1.070019        -0.791120
