19
Iteration:  3311charge 0 multiplicity 1
 C         0.185215         0.254480        -0.269280
 C         1.440769        -0.275371         0.361001
 C         1.280899        -0.957669         1.689327
 C         2.645452        -1.074414         2.424933
 C         3.793024        -0.812408         1.449692
 C         3.597927         0.366673         0.673782
 O         2.230221         0.893209         0.600161
 C         3.550889        -0.928510        -0.051249
 O         2.226738        -1.181729        -0.477096
 H        -0.175168         1.203424         0.207220
 H         0.515892         0.527308        -1.267546
 H        -0.724457        -0.416306        -0.359959
 H         0.660969        -0.297316         2.272015
 H         0.782733        -1.870668         1.340280
 H         2.578462        -0.316187         3.223172
 H         2.614603        -2.158825         2.791211
 H         4.853591        -0.905458         1.719673
 H         4.330729         1.095428         0.595177
 H         4.377702        -1.184449        -0.743467
