19
Iteration:  1835
 C         0.095894         0.158330        -0.332120
 C         1.482556        -0.174899         0.420347
 C         1.203180        -0.915454         1.724485
 C         2.656469        -1.537737         2.163476
 C         3.813330        -0.711399         1.564608
 C         3.579686         0.551934         0.727327
 O         2.206790         0.995317         0.534010
 C         3.597325        -0.854165        -0.007653
 O         2.296599        -1.141231        -0.384449
 H        -0.544739         0.778673         0.316850
 H         0.347115         0.836836        -1.140165
 H        -0.478229        -0.731752        -0.619932
 H         0.888171        -0.185315         2.578535
 H         0.504305        -1.722714         1.562767
 H         2.758698        -1.688536         3.226141
 H         2.842069        -2.539369         1.695845
 H         4.829539        -0.912963         1.939661
 H         4.279395         1.361621         0.640919
 H         4.435051        -1.113850        -0.632082
