19
Iteration:   160
 C         0.105828        -0.034278        -0.352966
 C         1.473109        -0.144591         0.413761
 C         1.343209        -0.878843         1.697680
 C         2.636896        -1.635552         2.246664
 C         3.690291        -0.889382         1.473231
 C         3.570118         0.544942         0.827671
 O         2.235880         1.082857         0.589239
 C         3.607808        -0.743574        -0.044140
 O         2.296455        -0.978287        -0.447974
 H        -0.603902         0.670728         0.176756
 H         0.190569         0.521076        -1.404162
 H        -0.394428        -1.095425        -0.396826
 H         1.174294        -0.008282         2.346738
 H         0.447757        -1.511071         1.587896
 H         2.683467        -1.588650         3.374615
 H         2.705716        -2.715434         1.969722
 H         4.725772        -0.913713         1.874074
 H         4.267526         1.330292         0.995162
 H         4.219200        -1.033252        -0.840790
