19
Iteration:  2406charge 0 multiplicity 1
 C         0.115413         0.244471        -0.279062
 C         1.422175        -0.173954         0.393033
 C         1.268788        -1.072331         1.709790
 C         2.620835        -1.319999         2.348505
 C         3.764374        -0.842677         1.532069
 C         3.600518         0.441814         0.644452
 O         2.252877         0.944567         0.509812
 C         3.598804        -0.873121        -0.010482
 O         2.276773        -1.064702        -0.479413
 H        -0.244165         0.845568         0.560376
 H         0.353041         0.767177        -1.155326
 H        -0.589105        -0.580320        -0.508135
 H         0.709441        -0.417929         2.377781
 H         0.676360        -1.897060         1.381474
 H         2.636637        -0.614017         3.259549
 H         2.716868        -2.304261         2.725396
 H         4.757790        -0.914054         1.974033
 H         4.406532         1.233548         0.631707
 H         4.468369        -1.105759        -0.714300
