19
Iteration:  4991charge 0 multiplicity 1
 C         0.223746         0.152945        -0.263737
 C         1.427629        -0.203655         0.382235
 C         1.177102        -0.816330         1.753392
 C         2.615491        -1.216435         2.303101
 C         3.807782        -0.839721         1.464512
 C         3.628788         0.442397         0.591923
 O         2.332903         0.991888         0.519279
 C         3.548228        -0.974231         0.028228
 O         2.149100        -1.180797        -0.376260
 H        -0.474097         0.675499         0.360292
 H         0.569689         0.743072        -1.132599
 H        -0.189610        -0.674743        -0.817808
 H         0.682317         0.032944         2.402388
 H         0.591991        -1.650283         1.686747
 H         2.872634        -0.856822         3.426012
 H         2.640835        -2.342178         2.291625
 H         4.851397        -1.038490         1.816060
 H         4.469874         1.080027         0.440822
 H         4.181916        -1.541845        -0.791417
