19
Iteration:  1989charge 0 multiplicity 1
 C         0.188896         0.021633        -0.365607
 C         1.430073        -0.153452         0.409387
 C         1.197966        -0.921150         1.714881
 C         2.608122        -1.399091         2.282848
 C         3.809783        -0.930477         1.426619
 C         3.602620         0.462557         0.722493
 O         2.242283         1.001871         0.663027
 C         3.659910        -0.711752        -0.063446
 O         2.215518        -0.990770        -0.451923
 H        -0.454224         0.762590         0.161591
 H         0.506535         0.347987        -1.332489
 H        -0.207018        -1.031182        -0.567050
 H         0.686658        -0.396852         2.630147
 H         0.641813        -1.829369         1.639182
 H         2.638881        -0.948704         3.281870
 H         2.620391        -2.533728         2.504291
 H         4.738159        -1.127954         1.890239
 H         4.360395         1.306962         0.767277
 H         4.232046        -1.191822        -0.795069
