19
Iteration:  4978
 C         0.214046         0.136191        -0.386375
 C         1.475182        -0.189249         0.494635
 C         1.186752        -0.821250         1.832811
 C         2.561915        -1.223901         2.306895
 C         3.797780        -0.789610         1.449618
 C         3.690933         0.386654         0.499473
 O         2.323131         0.942539         0.576749
 C         3.526758        -1.003844        -0.035286
 O         2.189554        -1.077954        -0.357799
 H        -0.514493         0.652862         0.184126
 H         0.381401         0.850689        -1.267760
 H        -0.209207        -0.815620        -0.585537
 H         0.534493        -0.199435         2.558431
 H         0.532890        -1.685996         1.642320
 H         2.662422        -0.800006         3.418299
 H         2.625668        -2.381405         2.431430
 H         4.726082        -1.161021         2.024872
 H         4.348313         1.103786         0.052888
 H         4.329253        -1.390246        -0.815849
