19
Iteration:  1633charge 0 multiplicity 1
 C         0.147353         0.066863        -0.368511
 C         1.438302        -0.243881         0.420743
 C         1.304091        -0.969351         1.735494
 C         2.568351        -1.313809         2.342527
 C         3.766832        -0.912866         1.445464
 C         3.565951         0.430663         0.753356
 O         2.269306         1.030236         0.644475
 C         3.615235        -0.760917        -0.095147
 O         2.247102        -0.991856        -0.509991
 H        -0.419447         0.756430         0.303433
 H         0.280044         0.409299        -1.382246
 H        -0.568641        -0.823557        -0.490851
 H         0.700457        -0.400668         2.483067
 H         0.721919        -1.921773         1.443229
 H         2.863815        -0.817571         3.261487
 H         2.661004        -2.342757         2.562878
 H         4.795717        -0.995599         1.763215
 H         4.421815         1.088739         0.990507
 H         4.464061        -1.174827        -0.810565
