19
Iteration:  2457
 C         0.159765         0.030234        -0.359833
 C         1.383656        -0.300081         0.409850
 C         1.262016        -0.714692         1.872395
 C         2.568285        -1.450719         2.199094
 C         3.767420        -0.812321         1.502059
 C         3.536877         0.483257         0.691415
 O         2.299404         0.986711         0.619278
 C         3.661600        -0.925442        -0.074244
 O         2.267173        -0.991536        -0.460983
 H        -0.662469         0.420015         0.288259
 H         0.422062         0.633473        -1.309794
 H        -0.041895        -0.914796        -0.840958
 H         1.181799         0.339792         2.356949
 H         0.288204        -1.290711         2.136036
 H         2.879882        -1.350729         3.301539
 H         2.466820        -2.554946         1.995681
 H         4.700891        -0.903134         1.992166
 H         4.376332         1.223862         0.505507
 H         4.305146        -1.300597        -0.760330
