19
Iteration:  2526charge 0 multiplicity 1
 C         0.145783         0.235100        -0.258899
 C         1.449509        -0.217474         0.396796
 C         1.209117        -0.976568         1.717160
 C         2.628637        -1.305911         2.338588
 C         3.792070        -0.764565         1.505635
 C         3.616843         0.483953         0.681297
 O         2.300528         0.891323         0.566489
 C         3.524232        -0.849086         0.040715
 O         2.276800        -1.119052        -0.559628
 H        -0.351953         0.995118         0.346374
 H         0.253084         0.364672        -1.266189
 H        -0.465585        -0.709430        -0.250592
 H         0.646693        -0.195327         2.359505
 H         0.578124        -1.890940         1.582900
 H         2.487874        -0.965537         3.463470
 H         2.722703        -2.354239         2.300856
 H         4.863465        -0.953736         1.780192
 H         4.305046         1.194629         0.321239
 H         4.390020        -1.162535        -0.720451
