19
Iteration:  1179
 C         0.157723         0.064887        -0.301391
 C         1.436372        -0.254727         0.350070
 C         1.272885        -1.031840         1.683447
 C         2.593391        -1.306207         2.431639
 C         3.815889        -0.800957         1.478198
 C         3.630941         0.436010         0.702861
 O         2.244981         0.893303         0.754731
 C         3.550183        -0.832138        -0.021662
 O         2.264836        -0.845449        -0.677481
 H        -0.567539         0.733444         0.181478
 H         0.208599         0.594579        -1.301602
 H        -0.405123        -0.925888        -0.350284
 H         0.455812        -0.451666         2.236430
 H         0.775305        -2.023525         1.535388
 H         2.733010        -0.665187         3.335830
 H         2.665199        -2.398847         2.384157
 H         4.870821        -1.006746         1.961776
 H         4.339126         1.275572         0.718008
 H         4.339243        -1.246119        -0.731883
