19
Iteration:  1925
 C         0.181130         0.287660        -0.208560
 C         1.418442        -0.205954         0.354228
 C         1.272772        -1.342254         1.630744
 C         2.558980        -1.120731         2.340838
 C         3.678579        -0.846098         1.444683
 C         3.585413         0.458496         0.699146
 O         2.289388         0.943565         0.668039
 C         3.616748        -0.804475        -0.023627
 O         2.297395        -1.069754        -0.535597
 H        -0.325198         0.956245         0.456165
 H         0.276242         0.919145        -1.019169
 H        -0.476237        -0.561731        -0.452861
 H         0.310009        -1.101436         2.209147
 H         1.353504        -2.199271         0.937248
 H         2.604896        -0.304181         2.995336
 H         2.861067        -1.926691         3.073804
 H         4.605825        -1.048817         1.928955
 H         4.290059         1.339744         0.591111
 H         4.424228        -1.231423        -0.605191
