19
Iteration:   197charge 0 multiplicity 1
 C         0.171053         0.189202        -0.284795
 C         1.400947        -0.269412         0.375817
 C         1.262866        -0.851377         1.748131
 C         2.622499        -1.541432         2.120574
 C         3.788542        -0.679096         1.562214
 C         3.521257         0.540535         0.710566
 O         2.167095         0.906381         0.660356
 C         3.623523        -0.757335        -0.046926
 O         2.377797        -1.174464        -0.455864
 H        -0.591604         0.608325         0.394709
 H         0.496840         0.910954        -0.943298
 H        -0.299566        -0.571433        -0.770055
 H         0.811209        -0.164443         2.446342
 H         0.417828        -1.548081         1.756241
 H         2.815109        -1.982728         3.136543
 H         2.575781        -2.444192         1.550428
 H         4.762850        -0.806558         2.028529
 H         4.223234         1.492779         0.844876
 H         4.440793        -0.836852        -0.855336
