19
Iteration:  2364charge 0 multiplicity 1
 C         0.247580         0.314409        -0.388846
 C         1.411004        -0.290149         0.413887
 C         1.269389        -1.177168         1.649760
 C         2.617720        -1.052307         2.376386
 C         3.826355        -0.862403         1.474074
 C         3.565509         0.422200         0.649015
 O         2.233537         0.860644         0.808073
 C         3.508477        -0.872391        -0.089105
 O         2.237718        -1.045512        -0.504327
 H        -0.189029         1.211126         0.032217
 H         0.509014         0.529089        -1.392341
 H        -0.538791        -0.453972        -0.569595
 H         0.645124        -0.749114         2.371140
 H         0.962884        -2.152602         1.494429
 H         2.509122        -0.185302         2.874375
 H         2.896093        -1.854818         3.060975
 H         4.830710        -1.205862         1.756909
 H         4.313265         1.219592         0.491566
 H         4.223412        -1.247018        -0.909685
