19
Iteration:   701
 C         0.152855         0.123565        -0.340537
 C         1.433248        -0.243160         0.351369
 C         1.293720        -1.066723         1.669435
 C         2.671875        -1.432541         2.336029
 C         3.790345        -0.901466         1.416051
 C         3.521753         0.530219         0.830600
 O         2.139634         0.923905         0.676579
 C         3.618672        -0.703516        -0.034193
 O         2.314271        -0.948905        -0.541147
 H        -0.310505         0.795918         0.405350
 H         0.459132         0.642591        -1.237883
 H        -0.401616        -0.732276        -0.656857
 H         0.668301        -0.437856         2.268617
 H         0.680060        -1.870781         1.584314
 H         2.783459        -0.901139         3.319552
 H         2.744473        -2.544952         2.584617
 H         4.801807        -0.980494         1.737612
 H         4.079714         1.486423         0.878060
 H         4.498243        -0.788978        -0.712637
