19
Iteration:   843
 C         0.176687         0.050365        -0.468513
 C         1.427784        -0.205765         0.416492
 C         1.271192        -0.944206         1.763695
 C         2.668381        -1.426238         2.199101
 C         3.829328        -0.928798         1.440927
 C         3.510996         0.480083         0.828896
 O         2.134354         0.973150         0.745238
 C         3.598509        -0.674809        -0.089965
 O         2.317646        -0.969835        -0.458717
 H        -0.432569         0.795972         0.073897
 H         0.511318         0.281821        -1.495858
 H        -0.369794        -0.882954        -0.640140
 H         0.873902        -0.196633         2.486863
 H         0.527786        -1.833674         1.851375
 H         2.929187        -1.200580         3.193913
 H         2.653195        -2.493159         2.163198
 H         4.819510        -1.199726         1.580341
 H         4.170997         1.412110         1.043396
 H         4.344916        -0.991521        -0.838692
