19
Iteration:  1723charge 0 multiplicity 1
 C         0.167162         0.303778        -0.284834
 C         1.440223        -0.287719         0.346575
 C         1.245186        -1.173580         1.632882
 C         2.666599        -1.225099         2.426132
 C         3.815553        -0.852988         1.446507
 C         3.524863         0.465282         0.737235
 O         2.214947         0.938419         0.652602
 C         3.607020        -0.812602        -0.071476
 O         2.290722        -1.060120        -0.488586
 H        -0.353266         0.896863         0.494178
 H         0.418094         1.008569        -1.151258
 H        -0.595598        -0.428028        -0.589148
 H         0.244004        -0.840776         2.160920
 H         0.978821        -2.150887         1.216091
 H         2.512553        -0.390916         3.126382
 H         2.673290        -2.184605         2.914325
 H         4.877311        -0.950988         1.691440
 H         4.299607         1.192319         0.579328
 H         4.315592        -1.267145        -0.776102
