19
Iteration:  2176
 C         0.147827         0.221129        -0.145672
 C         1.454367        -0.264081         0.367750
 C         1.281090        -1.093911         1.617784
 C         2.583888        -1.289140         2.402401
 C         3.744932        -0.724628         1.559409
 C         3.593080         0.493492         0.658365
 O         2.287296         0.949335         0.560807
 C         3.590946        -0.935776         0.048217
 O         2.254960        -1.024869        -0.604601
 H        -0.249201         0.943100         0.595670
 H         0.363695         0.840570        -1.127848
 H        -0.586252        -0.510225        -0.545893
 H         0.303536        -0.771277         2.032139
 H         1.002773        -2.003450         1.210226
 H         2.474688        -0.795538         3.377720
 H         2.663826        -2.445481         2.577255
 H         4.873835        -0.906937         1.730737
 H         4.330674         1.204522         0.481880
 H         4.451861        -1.284712        -0.646772
