19
Iteration:  4493charge 0 multiplicity 1
 C         0.175218         0.217066        -0.331479
 C         1.433457        -0.259870         0.338304
 C         1.253637        -0.759438         1.804699
 C         2.606035        -1.125705         2.427601
 C         3.746917        -0.962113         1.491749
 C         3.633011         0.393575         0.566258
 O         2.265226         0.913378         0.625281
 C         3.593900        -0.929990        -0.037936
 O         2.243686        -1.181799        -0.502040
 H        -0.210785         1.081604         0.270501
 H         0.412617         0.539662        -1.383525
 H        -0.614369        -0.563368        -0.358684
 H         0.821051         0.008472         2.351997
 H         0.480779        -1.630250         1.906265
 H         2.832193        -0.488300         3.266567
 H         2.388019        -2.163501         2.834965
 H         4.782556        -1.280331         1.558728
 H         4.339291         1.145174         0.223501
 H         4.378697        -1.300146        -0.668811
