19
Iteration:  1127charge 0 multiplicity 1
 C         0.161066         0.197508        -0.276802
 C         1.418930        -0.252718         0.414323
 C         1.274654        -0.953115         1.717105
 C         2.602451        -1.485684         2.186396
 C         3.775729        -0.741383         1.466348
 C         3.495350         0.494987         0.754300
 O         2.177785         0.947755         0.576202
 C         3.670985        -0.778070        -0.032405
 O         2.344737        -1.079745        -0.412809
 H        -0.499909         0.807493         0.327468
 H         0.392514         0.812747        -1.147223
 H        -0.328229        -0.658139        -0.768699
 H         0.846155        -0.318007         2.433877
 H         0.450545        -1.717563         1.713374
 H         2.702143        -1.371021         3.314613
 H         2.894651        -2.622103         2.128192
 H         4.761163        -0.968525         1.950372
 H         4.222336         1.301937         0.579217
 H         4.465174        -0.987137        -0.810369
