19
Iteration:   259
 C         0.110759         0.046555        -0.261546
 C         1.480179        -0.266912         0.335263
 C         1.260615        -1.113117         1.599932
 C         2.589676        -1.249043         2.337625
 C         3.743563        -0.854779         1.429481
 C         3.627956         0.494988         0.746755
 O         2.258413         0.951380         0.890901
 C         3.559334        -0.811498        -0.084096
 O         2.295748        -0.881289        -0.621855
 H        -0.448143         0.665632         0.483000
 H         0.280917         0.527938        -1.283666
 H        -0.325870        -0.922869        -0.540136
 H         0.657945        -0.454227         2.192178
 H         0.857899        -2.100872         1.345907
 H         2.607126        -0.500950         3.158474
 H         2.769778        -2.271780         2.681105
 H         4.636855        -1.229570         1.779630
 H         4.437717         1.317312         0.639667
 H         4.252782        -1.154394        -0.912767
