19
Iteration:  3640
 C         0.136658         0.193489        -0.303079
 C         1.430671        -0.275353         0.391726
 C         1.218559        -0.683679         1.857963
 C         2.581595        -1.435641         2.214180
 C         3.789467        -0.754611         1.502020
 C         3.627855         0.445033         0.606131
 O         2.258355         0.904225         0.468488
 C         3.651215        -0.876740         0.018424
 O         2.271378        -1.190370        -0.390009
 H        -0.265453         1.047950         0.298563
 H         0.345430         0.493288        -1.369784
 H        -0.427472        -0.770743        -0.168856
 H         1.064309         0.241402         2.476403
 H         0.195404        -1.292703         2.066977
 H         2.553923        -1.391722         3.294985
 H         2.468589        -2.492226         1.938915
 H         4.736084        -0.707311         1.946124
 H         4.263235         1.247788         0.528173
 H         4.418842        -1.209770        -0.635134
