19
Iteration:  2900
 C         0.206694         0.103624        -0.413108
 C         1.419547        -0.202017         0.423520
 C         1.171262        -0.843583         1.839973
 C         2.618820        -1.363454         2.295514
 C         3.786209        -0.909702         1.462930
 C         3.626228         0.515725         0.638274
 O         2.238767         0.994853         0.593648
 C         3.621904        -0.820263        -0.058585
 O         2.250891        -1.110665        -0.392113
 H        -0.214633         1.039097        -0.022853
 H         0.448147         0.104134        -1.429998
 H        -0.456653        -0.730753        -0.216906
 H         0.801637        -0.092025         2.543959
 H         0.440827        -1.697548         1.768525
 H         2.854491        -1.133901         3.386463
 H         2.570608        -2.413557         2.192516
 H         4.784388        -1.208191         1.725114
 H         4.284356         1.387814         0.458984
 H         4.301361        -1.217919        -0.804900
