19
Iteration:  4307charge 0 multiplicity 1
 C         0.177669         0.259917        -0.394971
 C         1.487543        -0.264548         0.394714
 C         1.323300        -0.847201         1.766672
 C         2.633297        -1.150530         2.488633
 C         3.784544        -0.886554         1.492429
 C         3.565075         0.336517         0.576526
 O         2.274325         0.941951         0.474648
 C         3.527103        -1.043776         0.049703
 O         2.179832        -1.087002        -0.451359
 H        -0.206037         1.114014         0.259885
 H         0.473494         0.568697        -1.406163
 H        -0.595135        -0.547358        -0.422477
 H         0.761555        -0.224368         2.353848
 H         0.642297        -1.770989         1.764086
 H         2.876280        -0.469841         3.292389
 H         2.377951        -2.157712         2.943269
 H         4.844591        -1.016249         1.730137
 H         4.357734         1.074234         0.459009
 H         4.274920        -1.157524        -0.750416
