19
Iteration:  4820charge 0 multiplicity 1
 C         0.149634         0.216181        -0.394970
 C         1.439379        -0.126557         0.369339
 C         1.206893        -0.871051         1.808763
 C         2.588450        -1.159991         2.368843
 C         3.786627        -0.814419         1.443172
 C         3.677173         0.349916         0.573851
 O         2.367026         0.964431         0.631342
 C         3.559244        -1.013559        -0.024762
 O         2.149744        -1.166177        -0.399079
 H        -0.630027         0.682324         0.250070
 H         0.348650         0.815832        -1.317157
 H        -0.399164        -0.690540        -0.732537
 H         0.708157        -0.367951         2.577750
 H         0.720157        -1.886747         1.546103
 H         2.809947        -0.695667         3.337952
 H         2.562890        -2.282057         2.628522
 H         4.824694        -1.005347         1.744632
 H         4.463176         1.000690         0.269251
 H         4.491213        -1.363214        -0.663759
