19
Iteration:  3570charge 0 multiplicity 1
 C         0.124223         0.072059        -0.336882
 C         1.461525        -0.237203         0.347437
 C         1.246024        -0.825120         1.783774
 C         2.599906        -1.223976         2.368872
 C         3.789169        -0.898331         1.465092
 C         3.622757         0.472318         0.619778
 O         2.339205         1.017646         0.600922
 C         3.555623        -0.950171         0.014349
 O         2.173841        -1.121223        -0.494964
 H        -0.478083         0.658786         0.374485
 H         0.447962         0.783244        -1.104600
 H        -0.314505        -0.844304        -0.740307
 H         0.653961        -0.091806         2.335862
 H         0.523832        -1.719643         1.728593
 H         2.877227        -0.623471         3.274181
 H         2.665162        -2.262713         2.681543
 H         4.863544        -0.957473         1.863621
 H         4.594574         1.093368         0.587023
 H         4.222528        -1.349958        -0.762970
