19
Iteration:  1699
 C         0.205010         0.345357        -0.214152
 C         1.407864        -0.247897         0.390424
 C         1.313877        -1.253540         1.582759
 C         2.619954        -1.112007         2.388114
 C         3.773232        -0.857958         1.507783
 C         3.579516         0.478001         0.650167
 O         2.184034         0.869626         0.660298
 C         3.592813        -0.791864        -0.052536
 O         2.298179        -1.105811        -0.541629
 H        -0.322582         0.964347         0.578973
 H         0.453162         1.074955        -0.982316
 H        -0.665988        -0.364587        -0.510464
 H         0.423634        -1.053201         2.230917
 H         1.117487        -2.281547         1.171276
 H         2.251451        -0.271885         2.998997
 H         2.607801        -2.021876         2.890593
 H         4.708786        -1.139565         1.869018
 H         4.298766         1.257396         0.592956
 H         4.564457        -1.166632        -0.686773
