19
Iteration:   740
 C         0.242083         0.090258        -0.358962
 C         1.440259        -0.261442         0.410661
 C         1.252332        -1.235003         1.528223
 C         2.604954        -1.198801         2.364188
 C         3.795317        -0.880422         1.474235
 C         3.576705         0.543097         0.629731
 O         2.228931         0.925521         0.916827
 C         3.565151        -0.774746        -0.020089
 O         2.250376        -0.853255        -0.557698
 H        -0.533803         0.466922         0.311169
 H         0.351780         0.787931        -1.226697
 H        -0.284695        -0.849567        -0.685195
 H         0.642825        -0.795094         2.346920
 H         0.996972        -2.271606         0.974298
 H         2.506554        -0.452691         3.151009
 H         2.753870        -2.161075         2.757362
 H         4.807804        -1.413142         1.698188
 H         4.249841         1.297682         0.440236
 H         4.176218        -1.205547        -0.755007
