19
Iteration:  3968
 C         0.326021         0.388453        -0.366630
 C         1.462335        -0.275160         0.379371
 C         1.232722        -1.020698         1.744092
 C         2.598515        -1.017204         2.430962
 C         3.762258        -0.797850         1.465680
 C         3.566905         0.402217         0.530360
 O         2.283005         0.820199         0.657940
 C         3.495643        -1.010930        -0.090781
 O         2.188392        -1.217702        -0.434782
 H         0.171086         1.237331         0.294592
 H         0.596003         0.848696        -1.339463
 H        -0.555214        -0.251478        -0.305358
 H         0.573847        -0.407992         2.280068
 H         0.743758        -2.029458         1.738290
 H         2.546730        -0.181911         3.163939
 H         2.879557        -1.945078         3.040592
 H         4.795711        -0.870518         1.873059
 H         4.187689         1.269444         0.393976
 H         4.239860        -1.406691        -0.744463
