19
Iteration:  4895charge 0 multiplicity 1
 C         0.178759         0.219810        -0.212942
 C         1.450817        -0.225403         0.374365
 C         1.220072        -0.940268         1.633639
 C         2.618860        -1.166442         2.344239
 C         3.730444        -0.788095         1.526958
 C         3.670170         0.403050         0.521055
 O         2.402000         0.976653         0.516740
 C         3.453614        -1.002407         0.082003
 O         2.199139        -1.111695        -0.394921
 H        -0.249159         1.116034         0.288552
 H         0.265856         0.303094        -1.319984
 H        -0.586492        -0.591852        -0.103369
 H         0.522821        -0.322512         2.267874
 H         0.770549        -1.948081         1.416942
 H         2.640660        -0.699100         3.325465
 H         2.745071        -2.191006         2.509256
 H         4.701678        -1.101309         1.932146
 H         4.457082         1.019498         0.160127
 H         4.301270        -1.479709        -0.573510
