19
Iteration:  4332charge 0 multiplicity 1
 C         0.178957         0.375841        -0.381138
 C         1.491775        -0.287452         0.415261
 C         1.209173        -0.882919         1.783534
 C         2.649677        -1.219131         2.432809
 C         3.771741        -0.672847         1.504339
 C         3.615548         0.411678         0.579630
 O         2.314062         0.880780         0.509798
 C         3.544315        -0.959912        -0.035553
 O         2.164651        -1.309736        -0.432924
 H        -0.172719         1.266360         0.175030
 H         0.580820         0.667413        -1.310991
 H        -0.668426        -0.312956        -0.573191
 H         0.706223        -0.017424         2.395709
 H         0.480439        -1.651876         1.876336
 H         2.848925        -0.796673         3.434835
 H         2.636380        -2.280376         2.579562
 H         4.828445        -0.907026         1.753819
 H         4.317887         1.241448         0.516871
 H         4.304882        -1.596326        -0.583369
