19
Iteration:  2943charge 0 multiplicity 1
 C         0.220362         0.096359        -0.418456
 C         1.454348        -0.184786         0.447692
 C         1.289980        -0.712074         1.972917
 C         2.611618        -1.507510         2.180489
 C         3.797508        -0.769106         1.529152
 C         3.523569         0.483168         0.655388
 O         2.230166         0.938777         0.484318
 C         3.531411        -0.822562         0.034049
 O         2.262620        -1.145056        -0.446122
 H        -0.283573         0.945387         0.088884
 H         0.584891         0.287364        -1.389675
 H        -0.540003        -0.699456        -0.417840
 H         0.976170         0.157347         2.521950
 H         0.484485        -1.394326         2.105620
 H         2.846991        -1.765259         3.278834
 H         2.530750        -2.378773         1.603446
 H         4.747136        -1.041170         1.957196
 H         4.358527         1.203830         0.527326
 H         4.320086        -1.071053        -0.616790
