19
Iteration:  3555charge 0 multiplicity 1
 C         0.159764         0.200140        -0.279758
 C         1.454880        -0.239490         0.319304
 C         1.258000        -0.897217         1.675932
 C         2.605740        -1.104008         2.456907
 C         3.765143        -0.799977         1.493460
 C         3.646644         0.350670         0.648856
 O         2.294844         0.875915         0.631105
 C         3.539202        -0.924705        -0.122426
 O         2.244720        -1.122694        -0.481265
 H        -0.646754         0.544748         0.417851
 H         0.112482         0.848761        -1.141370
 H        -0.373992        -0.702988        -0.618931
 H         0.758037        -0.089455         2.314337
 H         0.647158        -1.714308         1.688215
 H         2.674087        -0.430555         3.399964
 H         2.715663        -2.143888         2.876911
 H         4.719797        -1.224970         1.668757
 H         4.285137         1.113206         0.417131
 H         4.384437        -1.336723        -0.646132
