19
Iteration:  1059
 C         0.099120         0.045141        -0.318914
 C         1.470205        -0.207572         0.396879
 C         1.255150        -1.003169         1.731956
 C         2.598862        -1.396456         2.258716
 C         3.732424        -0.884530         1.431752
 C         3.601230         0.490573         0.759785
 O         2.243341         1.021691         0.677245
 C         3.657781        -0.714155        -0.075923
 O         2.329158        -0.988397        -0.459033
 H        -0.568914         0.716828         0.178675
 H         0.111760         0.608002        -1.274352
 H        -0.376168        -0.924899        -0.495388
 H         0.512007        -0.598317         2.311137
 H         0.706136        -1.876234         1.415700
 H         2.687113        -0.962618         3.313936
 H         2.486829        -2.555980         2.440335
 H         4.744566        -1.291850         1.631791
 H         4.264873         1.307645         0.684816
 H         4.359028        -0.958896        -0.819613
