19
Iteration:  3860charge 0 multiplicity 1
 C         0.211755         0.263379        -0.398657
 C         1.427063        -0.136837         0.369975
 C         1.222200        -0.716573         1.891879
 C         2.630811        -1.459246         2.283832
 C         3.806193        -0.786663         1.510910
 C         3.632191         0.408327         0.617755
 O         2.258495         1.034783         0.422171
 C         3.533065        -0.909796         0.008594
 O         2.217934        -1.302965        -0.282748
 H        -0.453223         0.833727         0.296875
 H         0.311653         0.722618        -1.400077
 H        -0.340155        -0.676550        -0.600807
 H         0.886114         0.056180         2.532485
 H         0.582401        -1.610651         1.943181
 H         2.769297        -1.486322         3.375006
 H         2.650635        -2.464887         1.851530
 H         4.846162        -1.005114         1.870939
 H         4.326758         1.172882         0.228686
 H         4.294549        -1.257956        -0.652169
