19
Iteration:  2414
 C         0.080062         0.158448        -0.242810
 C         1.475622        -0.163716         0.371173
 C         1.259258        -0.967920         1.692680
 C         2.610096        -1.356496         2.312242
 C         3.764953        -0.864540         1.492973
 C         3.582935         0.453965         0.741477
 O         2.293586         0.980474         0.456530
 C         3.663691        -0.888850         0.013188
 O         2.212462        -1.052333        -0.459587
 H        -0.463279         0.868488         0.423523
 H         0.199014         0.826697        -1.176835
 H        -0.489721        -0.681730        -0.594272
 H         0.616304        -0.510849         2.545332
 H         0.680541        -1.925997         1.403098
 H         2.753033        -0.718095         3.319713
 H         2.876015        -2.374599         2.574440
 H         4.734897        -0.793605         1.906407
 H         4.463353         1.154755         0.820545
 H         4.351573        -1.201534        -0.666193
