19
Iteration:  3323
 C         0.157718         0.167026        -0.306842
 C         1.438909        -0.233448         0.383505
 C         1.210397        -0.923177         1.743667
 C         2.593997        -1.178327         2.382547
 C         3.820042        -0.876312         1.478992
 C         3.626753         0.483580         0.654437
 O         2.305633         0.981993         0.523754
 C         3.571973        -0.954471        -0.011138
 O         2.208410        -1.116023        -0.479472
 H        -0.170761         0.970602         0.359361
 H         0.291395         0.562114        -1.347071
 H        -0.558167        -0.692962        -0.280249
 H         0.416979        -0.470351         2.401119
 H         0.820953        -1.921756         1.679530
 H         2.806327        -0.617502         3.303254
 H         2.813364        -2.238490         2.782889
 H         4.814426        -1.021120         1.959471
 H         4.338446         1.137054         0.317218
 H         4.222381        -1.435373        -0.706781
