19
Iteration:   477charge 0 multiplicity 1
 C         0.170803         0.087308        -0.394857
 C         1.427326        -0.210324         0.394863
 C         1.250957        -1.108856         1.603693
 C         2.706714        -1.396380         2.328419
 C         3.764875        -0.821055         1.477920
 C         3.568346         0.482650         0.788637
 O         2.216750         0.970738         0.768514
 C         3.541085        -0.739862        -0.034654
 O         2.276447        -0.905965        -0.549203
 H        -0.274028         0.937289         0.226822
 H         0.432838         0.417647        -1.401836
 H        -0.438895        -0.825485        -0.299221
 H         0.462713        -0.699111         2.250245
 H         0.935668        -2.116023         1.239303
 H         2.684814        -0.987881         3.403076
 H         2.834646        -2.516996         2.523184
 H         4.775674        -0.896075         1.701064
 H         4.315277         1.212387         0.699816
 H         4.274623        -1.128609        -0.731788
