19
Iteration:  1804
 C         0.209514         0.105600        -0.315805
 C         1.493480        -0.233457         0.395592
 C         1.286274        -0.840456         1.854522
 C         2.606145        -1.556803         2.134106
 C         3.741214        -0.785310         1.544724
 C         3.514206         0.554079         0.729307
 O         2.163424         1.002623         0.502724
 C         3.604097        -0.819370         0.004404
 O         2.325487        -1.087560        -0.427490
 H        -0.347925         0.729193         0.395767
 H         0.273736         0.725566        -1.155522
 H        -0.458310        -0.715673        -0.672982
 H         1.219107         0.173286         2.473311
 H         0.370689        -1.515777         1.918083
 H         2.699834        -1.865419         3.174120
 H         2.621137        -2.593013         1.625089
 H         4.709434        -0.995820         1.968555
 H         4.256676         1.303469         0.784337
 H         4.431150        -1.030906        -0.791695
