19
Iteration:   473
 C         0.194389         0.104119        -0.375786
 C         1.445536        -0.224735         0.363663
 C         1.294992        -1.095714         1.585692
 C         2.704210        -1.409545         2.328965
 C         3.759120        -0.807220         1.526088
 C         3.534287         0.484855         0.767858
 O         2.205729         0.938944         0.762234
 C         3.532367        -0.748240        -0.021935
 O         2.270280        -0.894704        -0.531079
 H        -0.231344         0.881635         0.227754
 H         0.299419         0.419178        -1.432864
 H        -0.466617        -0.762451        -0.382626
 H         0.494735        -0.586339         2.193281
 H         0.780125        -2.062465         1.280448
 H         2.832982        -1.159040         3.391015
 H         2.793375        -2.435199         2.457421
 H         4.836876        -0.894335         1.740457
 H         4.313043         1.300190         0.651981
 H         4.208957        -1.097713        -0.829599
