19
Iteration:  2323
 C         0.157503         0.120803        -0.213308
 C         1.512019        -0.189889         0.331624
 C         1.313221        -1.049445         1.613721
 C         2.597596        -1.203236         2.431908
 C         3.714755        -0.816737         1.492951
 C         3.604079         0.395660         0.719048
 O         2.304508         0.957645         0.645290
 C         3.542499        -0.910305        -0.025641
 O         2.209614        -0.967603        -0.598258
 H        -0.476352         0.880979         0.267045
 H         0.327319         0.576908        -1.199021
 H        -0.353983        -0.903008        -0.338984
 H         0.590240        -0.412052         2.137503
 H         0.715833        -2.000213         1.353275
 H         2.518845        -0.529046         3.362144
 H         2.654214        -2.320958         2.838881
 H         4.771387        -1.080063         1.777560
 H         4.340576         1.127343         0.555161
 H         4.445259        -1.392489        -0.628003
