19
Iteration:  3844
 C         0.240758         0.176915        -0.463631
 C         1.423826        -0.175398         0.510488
 C         1.267067        -0.819088         1.914949
 C         2.618635        -1.417675         2.272788
 C         3.746102        -0.775170         1.471499
 C         3.582241         0.499963         0.521058
 O         2.335266         0.970437         0.461178
 C         3.547967        -0.932027         0.016540
 O         2.134918        -1.144554        -0.283700
 H        -0.320975         1.066604        -0.130872
 H         0.863576         0.427981        -1.321357
 H        -0.372922        -0.717422        -0.662796
 H         1.068708         0.007489         2.656100
 H         0.375110        -1.477342         1.829128
 H         2.830180        -1.341696         3.356049
 H         2.585427        -2.551044         2.018575
 H         4.738350        -0.971834         1.828275
 H         4.435453         1.150416         0.426801
 H         4.207526        -1.550318        -0.674547
