19
Iteration:  2517charge 0 multiplicity 1
 C         0.178670         0.202220        -0.323457
 C         1.467206        -0.227542         0.403304
 C         1.222947        -0.911590         1.788301
 C         2.607408        -1.386919         2.304473
 C         3.750910        -0.723948         1.498199
 C         3.604534         0.515267         0.638751
 O         2.277716         0.934225         0.541763
 C         3.613825        -0.871324         0.029467
 O         2.222221        -1.107037        -0.476468
 H        -0.388133         0.877277         0.314133
 H         0.322618         0.605016        -1.316184
 H        -0.548475        -0.620595        -0.301418
 H         0.559506        -0.430959         2.471373
 H         0.791918        -1.865471         1.578653
 H         2.853321        -1.276134         3.410788
 H         2.739580        -2.440217         2.114067
 H         4.710676        -1.134983         1.909107
 H         4.321458         1.313682         0.453374
 H         4.350424        -1.465977        -0.663986
