19
Iteration:  3842
 C         0.237795         0.175542        -0.459239
 C         1.429397        -0.185774         0.508668
 C         1.270653        -0.809278         1.911149
 C         2.608998        -1.425053         2.277942
 C         3.748163        -0.767347         1.466096
 C         3.593579         0.486030         0.519539
 O         2.319238         0.972948         0.470318
 C         3.545611        -0.943559         0.009440
 O         2.139290        -1.129642        -0.286840
 H        -0.277505         1.031849        -0.134594
 H         0.901633         0.356144        -1.332299
 H        -0.338086        -0.696798        -0.674491
 H         1.059354         0.065600         2.666570
 H         0.451505        -1.487908         1.812979
 H         2.802200        -1.293010         3.343195
 H         2.669449        -2.490063         2.028733
 H         4.726058        -0.992291         1.880226
 H         4.415455         1.127160         0.494857
 H         4.094824        -1.533187        -0.734762
