19
Iteration:  1307charge 0 multiplicity 1
 C         0.170222        -0.003541        -0.334964
 C         1.470106        -0.157890         0.382677
 C         1.252223        -0.879923         1.751196
 C         2.604722        -1.443572         2.208941
 C         3.768696        -0.812067         1.451210
 C         3.588445         0.456559         0.735889
 O         2.238670         1.029006         0.683616
 C         3.558663        -0.828676        -0.021980
 O         2.292418        -0.983505        -0.473939
 H        -0.572519         0.466322         0.275879
 H         0.314717         0.315037        -1.391984
 H        -0.339121        -0.963572        -0.545011
 H         0.938158        -0.052787         2.501291
 H         0.514626        -1.622594         1.637534
 H         2.801092        -1.338451         3.308694
 H         2.477315        -2.540453         2.135394
 H         4.857430        -1.057993         1.819915
 H         4.392122         1.189082         0.778240
 H         4.220978        -1.137291        -0.863008
