19
Iteration:  1387
 C         0.139298         0.070143        -0.313358
 C         1.413200        -0.226000         0.360390
 C         1.263208        -0.977610         1.719043
 C         2.621105        -1.310369         2.327074
 C         3.695686        -0.830095         1.509832
 C         3.627712         0.496769         0.678049
 O         2.281370         0.975039         0.672346
 C         3.617791        -0.868826        -0.013808
 O         2.258701        -0.949104        -0.550769
 H        -0.320623         0.831313         0.361378
 H         0.152909         0.590460        -1.253430
 H        -0.303145        -0.979358        -0.331292
 H         0.652242        -0.438561         2.504114
 H         0.595596        -1.896326         1.449677
 H         2.756751        -1.258620         3.426054
 H         2.758257        -2.341228         2.204988
 H         4.657550        -1.013816         1.783257
 H         4.506822         1.122141         0.427784
 H         4.423806        -1.323665        -0.640234
