19
Iteration:   413charge 0 multiplicity 1
 C         0.164882         0.037601        -0.299618
 C         1.420477        -0.205016         0.411359
 C         1.310748        -0.906613         1.689540
 C         2.641326        -1.670817         2.046989
 C         3.820761        -0.798335         1.564094
 C         3.521188         0.564804         0.774670
 O         2.176498         1.056160         0.573052
 C         3.615941        -0.688132         0.047697
 O         2.278761        -1.039327        -0.386421
 H        -0.665822         0.425164         0.357051
 H         0.363129         0.806724        -1.027520
 H        -0.264706        -0.875296        -0.726259
 H         1.124301        -0.186351         2.437163
 H         0.514617        -1.601145         1.583966
 H         2.726945        -1.625513         3.089148
 H         2.610684        -2.658062         1.528834
 H         4.797312        -0.835393         2.015673
 H         4.295523         1.285742         0.720587
 H         4.326414        -1.054529        -0.691841
