19
Iteration:   434charge 0 multiplicity 1
 C         0.124676         0.187023        -0.278193
 C         1.467264        -0.244285         0.366947
 C         1.200510        -0.978349         1.797416
 C         2.608850        -1.562363         2.165522
 C         3.753944        -0.778702         1.426613
 C         3.466217         0.554050         0.810712
 O         2.180057         0.944969         0.562412
 C         3.690276        -0.656636        -0.075445
 O         2.432833        -1.114909        -0.421388
 H        -0.463308         0.721259         0.555663
 H         0.306229         0.920470        -1.055197
 H        -0.482114        -0.703686        -0.543507
 H         0.884747        -0.261618         2.520425
 H         0.480601        -1.754330         1.634646
 H         2.854502        -1.616876         3.266474
 H         2.687142        -2.578781         1.609543
 H         4.614657        -0.918496         1.993432
 H         4.095455         1.374603         1.050587
 H         4.535962        -0.767734        -0.769169
