19
Iteration:   406charge 0 multiplicity 1
 C         0.097036         0.011407        -0.358347
 C         1.468187        -0.169548         0.380814
 C         1.319096        -0.925528         1.753686
 C         2.677832        -1.636551         2.061250
 C         3.790715        -0.764330         1.535682
 C         3.498642         0.549136         0.762330
 O         2.218297         1.079744         0.620063
 C         3.536829        -0.761408         0.055057
 O         2.295271        -0.993829        -0.433357
 H        -0.589995         0.372926         0.357586
 H         0.348748         0.753954        -1.126309
 H        -0.093663        -0.978477        -0.800258
 H         1.085247        -0.166415         2.566940
 H         0.416512        -1.593586         1.716426
 H         2.755075        -1.961504         3.155095
 H         2.820949        -2.614169         1.631383
 H         4.816349        -1.027525         2.112956
 H         4.279865         1.279781         0.735828
 H         4.338610        -1.118968        -0.536635
