19
Iteration:  1839
 C         0.115825         0.179123        -0.330000
 C         1.482422        -0.174459         0.392802
 C         1.237273        -0.926583         1.732248
 C         2.637481        -1.504492         2.176135
 C         3.824941        -0.734021         1.545583
 C         3.581306         0.521459         0.734008
 O         2.194013         0.986676         0.533045
 C         3.580371        -0.834041         0.001505
 O         2.291612        -1.126407        -0.379794
 H        -0.529682         0.697932         0.393335
 H         0.350938         0.740100        -1.224835
 H        -0.369922        -0.782863        -0.578872
 H         0.801028        -0.287417         2.533949
 H         0.506432        -1.799038         1.601457
 H         2.778800        -1.560555         3.274727
 H         2.724853        -2.520989         1.704300
 H         4.806954        -0.944895         1.899850
 H         4.252292         1.377575         0.715011
 H         4.450147        -1.059004        -0.711368
