19
Iteration:   403charge 0 multiplicity 1
 C         0.093617         0.006225        -0.382634
 C         1.470119        -0.158593         0.374828
 C         1.321262        -0.934407         1.788914
 C         2.682913        -1.621168         2.096045
 C         3.763643        -0.758579         1.534724
 C         3.505265         0.546539         0.764361
 O         2.229891         1.080604         0.640272
 C         3.545824        -0.790862         0.046981
 O         2.294170        -0.977154        -0.457660
 H        -0.632782         0.357937         0.366205
 H         0.249565         0.695543        -1.185306
 H        -0.061375        -0.970329        -0.824296
 H         1.091577        -0.219237         2.545263
 H         0.469641        -1.573873         1.779982
 H         2.736566        -2.013316         3.038075
 H         2.863992        -2.587623         1.621194
 H         4.754087        -1.020637         1.989015
 H         4.247820         1.279086         0.727255
 H         4.359858        -1.112792        -0.569593
