19
Iteration:  2161charge 0 multiplicity 1
 C         0.190489         0.311330        -0.260738
 C         1.469192        -0.292020         0.326159
 C         1.278146        -1.227611         1.567378
 C         2.585620        -1.185283         2.406930
 C         3.738141        -0.785904         1.515419
 C         3.600570         0.469050         0.600909
 O         2.247429         0.989665         0.714952
 C         3.564784        -0.869443        -0.032861
 O         2.248975        -1.088654        -0.532509
 H        -0.152715         0.965467         0.582323
 H         0.422938         0.969704        -1.089791
 H        -0.562329        -0.568327        -0.371837
 H         0.584402        -0.876263         2.354034
 H         1.031850        -2.310679         1.175596
 H         2.525439        -0.414856         3.278940
 H         2.870444        -2.081304         2.836818
 H         4.646923        -1.060035         1.993387
 H         4.358597         1.304655         0.474728
 H         4.264547        -1.440771        -0.551838
