19
Iteration:  2861
 C         0.090300         0.268366        -0.211930
 C         1.473067        -0.240545         0.273792
 C         1.281740        -1.061822         1.669464
 C         2.603533        -1.170869         2.503489
 C         3.786681        -0.830885         1.471131
 C         3.626721         0.434382         0.647254
 O         2.231963         0.947924         0.537569
 C         3.591181        -0.945403         0.036048
 O         2.282659        -1.062796        -0.572933
 H        -0.375820         0.865941         0.612621
 H        -0.032526         1.002663        -1.034294
 H        -0.547380        -0.628082        -0.503657
 H         0.548832        -0.484898         2.238879
 H         0.902024        -2.064464         1.387628
 H         2.564070        -0.537710         3.346007
 H         2.875786        -2.212853         2.954350
 H         4.732206        -1.188582         1.793476
 H         4.455175         1.171267         0.601585
 H         4.265400        -1.578054        -0.427171
