19
Iteration:   271
 C         0.079605         0.077570        -0.224130
 C         1.420920        -0.310128         0.326818
 C         1.225927        -1.137928         1.549017
 C         2.591502        -1.153598         2.310719
 C         3.840658        -0.953012         1.420560
 C         3.598130         0.470925         0.727138
 O         2.255497         0.900695         0.861992
 C         3.627873        -0.772012        -0.022953
 O         2.319746        -0.859231        -0.624536
 H        -0.435388         0.775369         0.514846
 H         0.069297         0.700664        -1.141722
 H        -0.633416        -0.718543        -0.269298
 H         0.436763        -0.715762         2.125592
 H         0.803171        -2.124297         1.274549
 H         2.559878        -0.262049         3.044114
 H         2.664874        -2.009524         2.944226
 H         4.813756        -1.281655         1.608786
 H         4.377545         1.366525         0.747605
 H         4.586574        -1.109628        -0.610278
