19
Iteration:  1385charge 0 multiplicity 1
 C         0.142963         0.098557        -0.311945
 C         1.421629        -0.234022         0.368940
 C         1.236650        -0.993368         1.717763
 C         2.619502        -1.307168         2.318080
 C         3.716279        -0.823013         1.499670
 C         3.619117         0.502752         0.680868
 O         2.273130         0.986852         0.660548
 C         3.627005        -0.869286        -0.018957
 O         2.267205        -0.974859        -0.533262
 H        -0.347944         0.813072         0.326860
 H         0.117722         0.592146        -1.273203
 H        -0.302779        -0.927426        -0.382146
 H         0.666193        -0.397382         2.507622
 H         0.636156        -1.864398         1.572111
 H         2.724618        -1.376260         3.439466
 H         2.762977        -2.401521         2.202473
 H         4.738064        -1.069360         1.816354
 H         4.464273         1.138892         0.428023
 H         4.355409        -1.237676        -0.643322
