19
Iteration:  2760charge 0 multiplicity 1
 C         0.200285         0.134491        -0.292636
 C         1.450415        -0.194330         0.399648
 C         1.261750        -0.965006         1.745113
 C         2.539904        -1.343688         2.305120
 C         3.748633        -0.827161         1.486531
 C         3.593548         0.478181         0.624251
 O         2.302036         1.012905         0.553987
 C         3.581501        -0.808348        -0.048686
 O         2.248590        -1.119758        -0.385572
 H        -0.256904         0.932440         0.342383
 H         0.223930         0.396092        -1.322290
 H        -0.423670        -0.765307        -0.386514
 H         0.751847        -0.282331         2.401632
 H         0.693551        -1.923884         1.515218
 H         2.706508        -0.985694         3.310797
 H         2.594479        -2.468149         2.295588
 H         4.731789        -0.869658         1.988367
 H         4.431528         1.114584         0.522997
 H         4.282968        -1.179394        -0.908803
