19
Iteration:  4388
 C         0.086949         0.063048        -0.423111
 C         1.498005        -0.188460         0.354010
 C         1.325279        -0.721769         1.922858
 C         2.601409        -1.318679         2.459742
 C         3.674737        -0.868524         1.574156
 C         3.613150         0.333056         0.628176
 O         2.380219         0.977999         0.465324
 C         3.527855        -0.926889        -0.104407
 O         2.195086        -1.058159        -0.470837
 H        -0.473478         0.732836         0.157904
 H         0.329679         0.537678        -1.410263
 H        -0.378430        -0.887478        -0.520019
 H         1.184898         0.390026         2.405598
 H         0.497949        -1.372389         1.912633
 H         2.952752        -0.957837         3.466802
 H         2.494636        -2.356551         2.575625
 H         4.669106        -1.002997         1.977838
 H         4.425705         1.024878         0.417590
 H         4.221211        -1.343482        -0.752402
