19
Iteration:  3081charge 0 multiplicity 1
 C         0.218360         0.213618        -0.230395
 C         1.465095        -0.223006         0.407756
 C         1.289870        -1.040841         1.669588
 C         2.551084        -1.127758         2.445075
 C         3.718067        -0.783672         1.523160
 C         3.597087         0.463467         0.599301
 O         2.310364         0.907298         0.560273
 C         3.556641        -0.919782        -0.032109
 O         2.241921        -1.097916        -0.528010
 H        -0.281432         0.965491         0.356375
 H         0.385115         0.428688        -1.303435
 H        -0.540802        -0.539821        -0.054160
 H         0.351595        -0.683281         2.215780
 H         1.051938        -2.034766         1.186336
 H         2.653265        -0.516778         3.288084
 H         2.719597        -2.183950         2.743914
 H         4.672185        -1.246398         1.676480
 H         4.323108         1.311680         0.543087
 H         4.134793        -1.488137        -0.674629
