19
Iteration:  4885
 C         0.143440         0.228174        -0.285530
 C         1.502983        -0.136812         0.410608
 C         1.301907        -0.901490         1.688731
 C         2.560915        -1.205464         2.410828
 C         3.816345        -0.853532         1.505362
 C         3.611414         0.379153         0.523856
 O         2.287613         0.943703         0.497970
 C         3.579214        -1.022594         0.061544
 O         2.165112        -1.087242        -0.406949
 H        -0.275951         1.155493         0.212631
 H         0.358623         0.455714        -1.346234
 H        -0.523856        -0.625763        -0.015762
 H         0.555236        -0.364384         2.295434
 H         0.758012        -1.798645         1.180790
 H         2.493558        -0.598879         3.294499
 H         2.754748        -2.197488         2.759983
 H         4.857668        -0.965845         1.790432
 H         4.452984         1.000365         0.389877
 H         4.188601        -1.667982        -0.718409
