19
Iteration:  2642charge 0 multiplicity 1
 C         0.179951         0.211870        -0.263974
 C         1.482644        -0.256550         0.400747
 C         1.196200        -0.942231         1.726073
 C         2.629011        -1.240270         2.421896
 C         3.734048        -0.822314         1.424066
 C         3.594766         0.409246         0.677586
 O         2.223436         0.948239         0.544107
 C         3.588165        -0.883923        -0.049089
 O         2.296380        -1.084783        -0.499331
 H        -0.508903         0.551516         0.622137
 H         0.256611         0.989777        -1.069441
 H        -0.373391        -0.633674        -0.865828
 H         0.686130        -0.348812         2.468679
 H         0.737538        -1.883397         1.469082
 H         2.786658        -0.706472         3.335594
 H         2.800903        -2.377390         2.531348
 H         4.681876        -1.151960         1.882454
 H         4.330263         1.163614         0.669788
 H         4.484818        -1.183337        -0.727536
