19
Iteration:   936
 C         0.193206         0.084657        -0.295562
 C         1.435091        -0.279085         0.362871
 C         1.292901        -1.012557         1.703636
 C         2.680443        -1.409216         2.323213
 C         3.760595        -0.880742         1.433445
 C         3.450048         0.495446         0.807238
 O         2.192600         0.979334         0.649429
 C         3.607790        -0.753019        -0.023741
 O         2.311630        -0.916875        -0.579593
 H        -0.523398         0.498572         0.454754
 H         0.402829         0.751127        -1.128298
 H        -0.312429        -0.677717        -0.899708
 H         0.699590        -0.348986         2.360644
 H         0.655391        -1.827127         1.486355
 H         2.685173        -0.921167         3.365324
 H         2.827384        -2.553980         2.619733
 H         4.777526        -1.080236         1.793272
 H         4.282396         1.248598         0.942399
 H         4.453269        -1.083268        -0.763741
