19
Iteration:  3395
 C         0.140341         0.214867        -0.381812
 C         1.479245        -0.270957         0.420028
 C         1.278540        -0.680615         1.936945
 C         2.553426        -1.431221         2.262772
 C         3.800223        -0.769909         1.543642
 C         3.531472         0.443015         0.607548
 O         2.266536         0.958297         0.452214
 C         3.660649        -0.868889        -0.093292
 O         2.214707        -1.261352        -0.361102
 H        -0.604559         0.768092         0.298629
 H         0.532312         0.754149        -1.195635
 H        -0.134348        -0.772260        -0.804156
 H         1.102954         0.157928         2.642995
 H         0.297292        -1.319557         1.928022
 H         2.839754        -1.341481         3.320823
 H         2.657483        -2.487879         2.074143
 H         4.737406        -0.720802         2.084505
 H         4.166648         1.303683         0.595666
 H         4.433796        -1.191017        -0.870004
