19
Iteration:  1062
 C         0.115903         0.045607        -0.354778
 C         1.460626        -0.214890         0.397748
 C         1.240272        -0.988949         1.748823
 C         2.607811        -1.426722         2.245998
 C         3.744468        -0.893031         1.429250
 C         3.570141         0.508958         0.747665
 O         2.238817         1.032692         0.677915
 C         3.676324        -0.710898        -0.091081
 O         2.317664        -0.986812        -0.416709
 H        -0.547423         0.709835         0.213896
 H         0.209008         0.645005        -1.272000
 H        -0.359060        -0.953934        -0.470428
 H         0.459946        -0.539292         2.462714
 H         0.674668        -1.975988         1.382890
 H         2.764846        -0.881241         3.233109
 H         2.438448        -2.572289         2.436464
 H         4.788693        -1.332458         1.564730
 H         4.303216         1.304120         0.768721
 H         4.439955        -1.023616        -0.893077
