19
Iteration:  1953charge 0 multiplicity 1
 C         0.185643         0.283559        -0.186421
 C         1.430034        -0.284180         0.255075
 C         1.306282        -1.150223         1.595943
 C         2.609047        -1.233101         2.412688
 C         3.807627        -0.791916         1.631048
 C         3.535606         0.473405         0.685176
 O         2.192865         0.881535         0.639084
 C         3.618701        -0.836935        -0.005352
 O         2.267034        -1.031559        -0.660655
 H        -0.335400         0.916396         0.606492
 H         0.355176         1.030806        -1.055171
 H        -0.620043        -0.500266        -0.383358
 H         0.576670        -0.550291         2.140196
 H         0.928111        -2.131665         1.312621
 H         2.597058        -0.599413         3.402649
 H         2.857437        -2.262078         2.707800
 H         4.834317        -0.968460         2.019333
 H         4.148941         1.310836         0.575932
 H         4.440856        -1.430688        -0.563052
