19
Iteration:   483charge 0 multiplicity 1
 C         0.135851         0.084306        -0.380635
 C         1.415791        -0.193060         0.424589
 C         1.214112        -1.152032         1.643609
 C         2.665546        -1.378153         2.353013
 C         3.773102        -0.848637         1.400303
 C         3.592837         0.495736         0.813216
 O         2.231045         1.017767         0.775979
 C         3.583996        -0.747420        -0.062991
 O         2.276917        -0.928221        -0.574957
 H        -0.424849         0.898302         0.023670
 H         0.565614         0.367929        -1.357367
 H        -0.449048        -0.831054        -0.315168
 H         0.459969        -0.890106         2.419261
 H         1.085338        -2.135217         1.160294
 H         2.514371        -0.725957         3.196544
 H         2.853596        -2.415337         2.509141
 H         4.871743        -1.048128         1.745751
 H         4.409027         1.285849         0.815077
 H         4.465541        -1.112213        -0.618938
