19
Iteration:  1761
 C         0.159087        -0.020426        -0.401079
 C         1.424720        -0.237392         0.350476
 C         1.202156        -0.891624         1.699561
 C         2.613626        -1.390376         2.339542
 C         3.778973        -0.871335         1.428090
 C         3.618609         0.462638         0.734698
 O         2.257495         1.037866         0.750049
 C         3.559692        -0.856191        -0.046580
 O         2.277018        -0.897641        -0.496689
 H        -0.349919         0.674920         0.292979
 H         0.324995         0.478647        -1.313014
 H        -0.311276        -1.030243        -0.433883
 H         0.862010        -0.190325         2.467550
 H         0.534204        -1.794045         1.628589
 H         2.857001        -1.046218         3.348077
 H         2.732824        -2.523168         2.379279
 H         4.817563        -1.113586         1.617453
 H         4.346394         1.224838         0.488669
 H         4.406470        -1.311363        -0.698716
