19
Iteration:  1943
 C         0.152200         0.343209        -0.169171
 C         1.491290        -0.364502         0.369820
 C         1.292243        -1.230308         1.534789
 C         2.571971        -1.186050         2.457358
 C         3.818240        -0.754734         1.550116
 C         3.584467         0.461253         0.678587
 O         2.194585         0.892019         0.590061
 C         3.598935        -0.839333        -0.037071
 O         2.286414        -1.021373        -0.584547
 H        -0.189387         0.970005         0.730602
 H         0.363926         1.001197        -1.083792
 H        -0.602953        -0.434207        -0.579910
 H         0.375528        -0.806637         2.081261
 H         1.000154        -2.178291         1.125862
 H         2.393110        -0.536583         3.405315
 H         2.554214        -2.221467         2.864139
 H         4.788189        -1.010629         1.960607
 H         4.160904         1.315370         0.651237
 H         4.409025        -1.241384        -0.777361
