19
Iteration:  3515
 C         0.188227         0.290140        -0.311736
 C         1.478254        -0.202660         0.388617
 C         1.304561        -1.200522         1.692427
 C         2.638229        -1.003689         2.469322
 C         3.730402        -0.828664         1.481323
 C         3.606278         0.389424         0.585704
 O         2.310413         0.960401         0.556244
 C         3.472987        -0.956744         0.000458
 O         2.193994        -1.113187        -0.463738
 H        -0.132652         1.026445         0.423157
 H         0.552002         0.730765        -1.160704
 H        -0.348623        -0.633250        -0.495337
 H         0.420140        -0.750797         2.185159
 H         1.099882        -2.245430         1.313031
 H         2.361534        -0.137215         3.040130
 H         2.772767        -1.812356         3.145336
 H         4.761684        -1.119189         1.760039
 H         4.458605         0.991106         0.429503
 H         4.013092        -1.508910        -0.710031
