19
Iteration:  2018charge 0 multiplicity 1
 C         0.191812         0.035625        -0.458557
 C         1.404428        -0.201633         0.387283
 C         1.284789        -0.807875         1.820758
 C         2.649851        -1.505928         2.208318
 C         3.766197        -0.822408         1.446393
 C         3.564729         0.504312         0.745624
 O         2.219686         1.045319         0.687249
 C         3.626245        -0.777104        -0.043597
 O         2.230672        -1.078398        -0.399429
 H        -0.594168         0.748972        -0.074588
 H         0.559877         0.584050        -1.363783
 H        -0.160624        -1.014214        -0.717876
 H         1.174503        -0.016334         2.506722
 H         0.538672        -1.658174         1.956335
 H         2.678306        -1.764767         3.323586
 H         2.488354        -2.449167         1.737282
 H         4.760374        -1.047285         1.841333
 H         4.236339         1.310610         0.835654
 H         4.311201        -1.310350        -0.832719
