19
Iteration:  1951charge 0 multiplicity 1
 C         0.181491         0.299834        -0.176167
 C         1.441649        -0.311189         0.275191
 C         1.302650        -1.172012         1.590838
 C         2.598986        -1.217360         2.426439
 C         3.822461        -0.785590         1.623549
 C         3.541573         0.459788         0.676140
 O         2.186990         0.888677         0.626348
 C         3.621352        -0.833578        -0.016472
 O         2.265087        -1.029014        -0.648417
 H        -0.307166         0.923091         0.577950
 H         0.329187         1.048765        -1.042446
 H        -0.561106        -0.445959        -0.398088
 H         0.606359        -0.580045         2.044772
 H         0.925205        -2.167728         1.198667
 H         2.585661        -0.625390         3.407849
 H         2.754311        -2.235279         2.738637
 H         4.864764        -0.997840         2.062775
 H         4.118080         1.395343         0.603833
 H         4.386785        -1.406687        -0.557977
