19
Iteration:  3861charge 0 multiplicity 1
 C         0.197461         0.265021        -0.392298
 C         1.432026        -0.137600         0.365093
 C         1.225488        -0.714654         1.886289
 C         2.626427        -1.458928         2.282633
 C         3.811961        -0.786135         1.514556
 C         3.627256         0.411093         0.619356
 O         2.253925         1.032278         0.423241
 C         3.536046        -0.916111         0.007402
 O         2.224138        -1.305594        -0.284020
 H        -0.420574         0.815147         0.309714
 H         0.322254         0.739113        -1.399111
 H        -0.319416        -0.670119        -0.596755
 H         0.881010         0.098345         2.539418
 H         0.600148        -1.582789         1.914415
 H         2.760214        -1.479734         3.364921
 H         2.668656        -2.424936         1.864267
 H         4.837037        -1.017918         1.891674
 H         4.347380         1.142368         0.274050
 H         4.250360        -1.255190        -0.698767
