19
Iteration:  2734
 C         0.074344         0.176609        -0.309360
 C         1.385954        -0.181724         0.373344
 C         1.263017        -0.808396         1.802083
 C         2.667767        -1.496144         2.201702
 C         3.789355        -0.765053         1.567265
 C         3.561268         0.511704         0.683429
 O         2.248349         0.971783         0.467902
 C         3.653125        -0.893318         0.097915
 O         2.269681        -1.139609        -0.445405
 H        -0.396256         0.975302         0.193188
 H         0.307829         0.339807        -1.376537
 H        -0.584862        -0.669458        -0.382485
 H         0.968356         0.096715         2.441924
 H         0.517539        -1.663553         1.771930
 H         2.908399        -1.516976         3.312665
 H         2.637978        -2.449830         1.785741
 H         4.866364        -0.905465         1.852008
 H         4.412250         1.261338         0.635494
 H         4.391881        -1.359959        -0.506264
