19
Iteration:  1806charge 0 multiplicity 1
 C         0.193503         0.124193        -0.319023
 C         1.504879        -0.268840         0.383946
 C         1.292594        -0.848038         1.854658
 C         2.589284        -1.561692         2.118687
 C         3.739186        -0.772699         1.560279
 C         3.519413         0.557653         0.700058
 O         2.169390         1.021058         0.510697
 C         3.607502        -0.828571         0.007832
 O         2.317026        -1.085384        -0.414698
 H        -0.384689         0.744027         0.395132
 H         0.295099         0.771102        -1.155271
 H        -0.456072        -0.751242        -0.648827
 H         1.278610         0.076962         2.435781
 H         0.414836        -1.569769         1.971802
 H         2.738978        -1.865084         3.181842
 H         2.607884        -2.576990         1.630975
 H         4.670757        -0.933828         2.013048
 H         4.262063         1.300139         0.804383
 H         4.489785        -1.042121        -0.757870
