19
Iteration:  3684charge 0 multiplicity 1
 C         0.138141         0.154683        -0.333345
 C         1.424045        -0.110922         0.425113
 C         1.224173        -0.908032         1.726381
 C         2.676948        -1.233249         2.412974
 C         3.820369        -0.888662         1.533631
 C         3.579695         0.367657         0.597048
 O         2.311156         0.965954         0.518150
 C         3.551821        -0.938379        -0.028681
 O         2.234477        -1.042455        -0.452082
 H        -0.700339         0.860698        -0.001093
 H         0.415178         0.471106        -1.369768
 H        -0.376516        -0.854232        -0.500713
 H         0.768596        -0.198730         2.469235
 H         0.515593        -1.868861         1.660798
 H         2.922395        -0.666524         3.322201
 H         2.610070        -2.280657         2.706211
 H         4.739248        -1.226408         1.929534
 H         4.282135         1.134966         0.505194
 H         4.172332        -1.514558        -0.693460
