19
Iteration:  3108charge 0 multiplicity 1
 C         0.036184         0.109545        -0.238238
 C         1.425803        -0.192559         0.337761
 C         1.273259        -0.910517         1.714981
 C         2.600860        -1.304437         2.385364
 C         3.778052        -0.892945         1.573111
 C         3.581586         0.415686         0.670728
 O         2.318053         1.068161         0.423052
 C         3.626539        -0.898741         0.086763
 O         2.311864        -1.073465        -0.539015
 H        -0.375646         0.989702         0.317300
 H         0.013465         0.298626        -1.331888
 H        -0.755496        -0.650828         0.006471
 H         0.700798        -0.241669         2.347861
 H         0.578834        -1.715048         1.557561
 H         2.824776        -0.763102         3.383278
 H         2.654515        -2.366966         2.614663
 H         4.805367        -1.208329         1.929501
 H         4.404319         1.068303         0.542491
 H         4.267007        -1.289073        -0.801285
