19
Iteration:  1697
 C         0.188483         0.341581        -0.226775
 C         1.422870        -0.252982         0.393601
 C         1.291251        -1.250710         1.588249
 C         2.612113        -1.107174         2.408815
 C         3.782007        -0.821084         1.488893
 C         3.574233         0.449927         0.665645
 O         2.199494         0.862013         0.673559
 C         3.589332        -0.789459        -0.055894
 O         2.301147        -1.097818        -0.554914
 H        -0.296616         0.973116         0.574976
 H         0.445911         1.096761        -0.945486
 H        -0.631361        -0.437861        -0.458859
 H         0.455717        -1.073088         2.141476
 H         1.107543        -2.259505         1.132594
 H         2.246125        -0.269504         3.010589
 H         2.604666        -2.052293         2.903690
 H         4.766030        -1.129537         1.839136
 H         4.320263         1.252201         0.533498
 H         4.507211        -1.228169        -0.696910
