19
Iteration:  2185charge 0 multiplicity 1
 C         0.084042         0.229635        -0.163617
 C         1.511766        -0.217993         0.337077
 C         1.249065        -1.066250         1.624956
 C         2.610821        -1.302260         2.404857
 C         3.724944        -0.776734         1.559182
 C         3.594079         0.448655         0.729508
 O         2.278967         0.903195         0.473375
 C         3.553638        -0.902023         0.004602
 O         2.306038        -0.980190        -0.553965
 H        -0.461741         0.907759         0.552370
 H         0.298189         0.817773        -1.145522
 H        -0.406064        -0.783148        -0.335141
 H         0.490456        -0.497193         2.255700
 H         0.890229        -2.062584         1.319746
 H         2.727782        -0.952634         3.488854
 H         2.839287        -2.374819         2.413029
 H         4.749630        -0.884240         2.047095
 H         4.284024         1.223213         0.573740
 H         4.346684        -1.171202        -0.761368
