19
Iteration:  4832charge 0 multiplicity 1
 C         0.176265         0.200251        -0.362802
 C         1.422436        -0.196193         0.444389
 C         1.166716        -0.776523         1.770651
 C         2.663300        -1.114512         2.412836
 C         3.818183        -0.876486         1.456521
 C         3.568335         0.322074         0.528454
 O         2.318550         0.930939         0.698923
 C         3.558430        -1.043869        -0.067765
 O         2.242124        -1.124336        -0.486937
 H        -0.468535         0.948841         0.168853
 H         0.512471         0.724193        -1.259246
 H        -0.289999        -0.764480        -0.661677
 H         0.507765        -0.113686         2.209799
 H         0.503087        -1.739679         1.628040
 H         2.770138        -0.573162         3.351103
 H         2.768937        -2.283001         2.591893
 H         4.775707        -0.867247         1.942206
 H         4.376459         1.010340         0.497339
 H         4.148757        -1.483484        -0.958975
