19
Iteration:   987charge 0 multiplicity 1
 C         0.220832         0.194518        -0.324846
 C         1.437375        -0.241407         0.415821
 C         1.321703        -1.236750         1.527957
 C         2.587562        -1.183039         2.266876
 C         3.800690        -0.853511         1.380555
 C         3.573963         0.509123         0.789962
 O         2.180119         0.929836         0.829977
 C         3.594116        -0.774491        -0.144859
 O         2.254554        -1.034793        -0.405588
 H        -0.289807         0.960126         0.282673
 H         0.501697         0.799028        -1.216511
 H        -0.412889        -0.671704        -0.692853
 H         0.424645        -1.015348         2.245337
 H         0.816324        -2.193770         1.234281
 H         2.536860        -0.463622         3.056194
 H         2.715262        -2.099969         2.794630
 H         4.770499        -0.949428         1.980010
 H         4.332345         1.240139         0.695939
 H         4.272628        -0.955511        -1.014839
