19
Iteration:  4648
 C         0.155581         0.163096        -0.255133
 C         1.507889        -0.121661         0.392722
 C         1.252285        -0.829302         1.781719
 C         2.590636        -1.250839         2.400337
 C         3.725337        -0.892599         1.489974
 C         3.630290         0.383473         0.651509
 O         2.311406         1.003346         0.443747
 C         3.530639        -1.080333         0.006916
 O         2.226545        -1.095511        -0.470046
 H        -0.463120         0.988657         0.120510
 H         0.400356         0.636515        -1.235424
 H        -0.389878        -0.759408        -0.489026
 H         0.767305        -0.005691         2.284112
 H         0.589405        -1.751234         1.593990
 H         2.694840        -0.575539         3.188983
 H         2.734627        -2.222847         2.859496
 H         4.743101        -0.931526         1.894731
 H         4.432096         1.114079         0.487027
 H         4.230434        -1.538396        -0.817847
