19
Iteration:   720charge 0 multiplicity 1
 C         0.124953         0.100771        -0.430376
 C         1.430056        -0.199173         0.411820
 C         1.276202        -1.131192         1.682660
 C         2.669965        -1.293707         2.360204
 C         3.790074        -0.880548         1.411783
 C         3.558421         0.451272         0.868191
 O         2.217646         0.957553         0.806672
 C         3.567071        -0.713972        -0.155944
 O         2.266828        -0.929299        -0.558023
 H        -0.701294         0.591255         0.095442
 H         0.502435         0.535420        -1.387305
 H        -0.236562        -0.894077        -0.797224
 H         0.497624        -0.725126         2.372329
 H         1.201968        -2.198212         1.196592
 H         2.694895        -0.600653         3.163859
 H         2.788655        -2.264720         2.702417
 H         4.861024        -1.104630         1.837247
 H         4.337771         1.129699         0.982959
 H         4.354512        -0.968422        -0.834454
