19
Iteration:  4911charge 0 multiplicity 1
 C         0.106871         0.230474        -0.288547
 C         1.464576        -0.251501         0.349568
 C         1.181276        -0.931074         1.835014
 C         2.515943        -1.168264         2.449073
 C         3.774150        -0.750735         1.496685
 C         3.704309         0.433162         0.587292
 O         2.398837         0.985570         0.535322
 C         3.620019        -0.984670        -0.078364
 O         2.165156        -1.207789        -0.523165
 H        -0.096875         1.097584         0.359629
 H         0.245341         0.572896        -1.300882
 H        -0.691327        -0.461401        -0.055157
 H         0.546994        -0.312743         2.428159
 H         0.652458        -1.882598         1.550916
 H         2.578558        -0.714887         3.465953
 H         2.770652        -2.296919         2.635938
 H         4.802842        -1.037334         1.775090
 H         4.584128         1.141818         0.482241
 H         4.237008        -1.536852        -0.667713
