19
Iteration:  4099charge 0 multiplicity 1
 C         0.243966         0.241269        -0.356543
 C         1.436411        -0.122225         0.456487
 C         1.152619        -0.765103         1.838064
 C         2.553784        -1.348727         2.295026
 C         3.849720        -0.719742         1.440321
 C         3.680675         0.410698         0.497295
 O         2.262878         0.973681         0.459880
 C         3.599878        -0.979427        -0.020337
 O         2.174294        -1.293880        -0.219369
 H        -0.466569         0.828082         0.164385
 H         0.434467         0.733432        -1.386728
 H        -0.347927        -0.629514        -0.503883
 H         0.623666        -0.098947         2.509085
 H         0.436220        -1.688556         1.505218
 H         2.726217        -1.347400         3.342642
 H         2.748577        -2.424287         2.077913
 H         4.914593        -0.751518         1.784058
 H         4.306980         1.347122         0.507361
 H         4.480311        -1.504085        -0.562539
