19
Iteration:  1816
 C         0.120829         0.187467        -0.322776
 C         1.409061        -0.329056         0.360151
 C         1.333827        -0.898127         1.797580
 C         2.575752        -1.616425         2.103124
 C         3.712887        -0.698216         1.567043
 C         3.530115         0.535948         0.612504
 O         2.247012         1.061620         0.557893
 C         3.691240        -0.786455         0.069633
 O         2.294611        -1.114908        -0.390661
 H        -0.498168         0.699013         0.424515
 H         0.463191         0.737397        -1.123381
 H        -0.404486        -0.772765        -0.598250
 H         1.220878        -0.037635         2.569620
 H         0.428340        -1.568711         2.078095
 H         2.740529        -1.701451         3.179138
 H         2.549832        -2.612529         1.528897
 H         4.609328        -0.628799         2.096487
 H         4.282246         1.264592         0.638359
 H         4.514941        -1.319242        -0.633039
