19
Iteration:  1125charge 0 multiplicity 1
 C         0.153252         0.210830        -0.287171
 C         1.418443        -0.266920         0.414392
 C         1.266457        -0.966751         1.718117
 C         2.604224        -1.495342         2.186277
 C         3.781156        -0.724953         1.463599
 C         3.498632         0.510812         0.751011
 O         2.171955         0.945804         0.587546
 C         3.668879        -0.794214        -0.026950
 O         2.345093        -1.073263        -0.412048
 H        -0.497524         0.806507         0.335257
 H         0.448412         0.814823        -1.192537
 H        -0.321410        -0.651398        -0.814917
 H         0.882104        -0.231956         2.413865
 H         0.477743        -1.709146         1.782998
 H         2.767283        -1.409778         3.300072
 H         2.845500        -2.608579         2.136319
 H         4.807114        -0.946039         1.945906
 H         4.224850         1.267642         0.539215
 H         4.456131        -1.028244        -0.798465
