19
Iteration:  1872charge 0 multiplicity 1
 C         0.157741         0.090638        -0.355191
 C         1.410944        -0.213348         0.361335
 C         1.255013        -1.044806         1.775188
 C         2.613937        -1.304317         2.433442
 C         3.775045        -0.851268         1.403957
 C         3.659413         0.435828         0.735075
 O         2.186912         0.979810         0.751697
 C         3.579067        -0.836689        -0.073719
 O         2.317931        -0.963903        -0.637857
 H        -0.473558         0.747612         0.227049
 H         0.429281         0.538541        -1.304733
 H        -0.335712        -0.825146        -0.687394
 H         0.660897        -0.280135         2.304135
 H         0.465063        -1.870853         1.627442
 H         2.755822        -0.617723         3.299552
 H         2.651522        -2.337593         2.828627
 H         4.786578        -1.190659         1.583021
 H         4.303149         1.351609         0.850585
 H         4.324544        -1.134976        -0.826490
