19
Iteration:  3143charge 0 multiplicity 1
 C         0.230156         0.069783        -0.389891
 C         1.461045        -0.291662         0.445140
 C         1.221383        -0.727889         1.892437
 C         2.608256        -1.383330         2.188275
 C         3.757010        -0.734102         1.490465
 C         3.511255         0.435669         0.683546
 O         2.306474         1.014851         0.564213
 C         3.579616        -0.906854        -0.103594
 O         2.221380        -1.151840        -0.388125
 H        -0.320023         0.906235         0.031649
 H         0.597476         0.394879        -1.456405
 H        -0.353568        -0.835523        -0.519334
 H         1.236244         0.123300         2.469692
 H         0.277986        -1.338046         2.057226
 H         2.764604        -1.176053         3.308469
 H         2.616602        -2.482494         2.033773
 H         4.714153        -0.855893         2.019729
 H         4.337638         1.124083         0.706029
 H         4.313548        -1.264192        -0.858803
