19
Iteration:  4095
 C         0.262824         0.254766        -0.375351
 C         1.441272        -0.167504         0.449534
 C         1.120673        -0.802632         1.843118
 C         2.579429        -1.363206         2.327662
 C         3.857533        -0.736389         1.470200
 C         3.657860         0.446565         0.507423
 O         2.295197         0.966148         0.435790
 C         3.572938        -0.952541        -0.048337
 O         2.174101        -1.274955        -0.214021
 H        -0.559894         0.825148         0.204065
 H         0.584313         0.740698        -1.264979
 H        -0.396218        -0.648477        -0.647010
 H         0.780229        -0.096638         2.637676
 H         0.372349        -1.571798         1.527883
 H         2.746601        -1.195017         3.421166
 H         2.584265        -2.456768         2.099590
 H         4.929892        -0.675326         1.721889
 H         4.276925         1.280782         0.370499
 H         4.320354        -1.470055        -0.620999
