19
Iteration:  2449charge 0 multiplicity 1
 C         0.167652         0.008754        -0.328035
 C         1.459987        -0.221866         0.374153
 C         1.251039        -0.744841         1.841038
 C         2.569090        -1.477444         2.224659
 C         3.740118        -0.809278         1.481532
 C         3.600050         0.438764         0.648544
 O         2.288856         1.011993         0.617478
 C         3.638863        -0.876208         0.010251
 O         2.233053        -1.010139        -0.494428
 H        -0.668104         0.277718         0.321580
 H         0.353485         0.646449        -1.159504
 H        -0.163371        -1.010099        -0.658629
 H         1.235555         0.170911         2.520162
 H         0.298477        -1.317576         1.905266
 H         2.627382        -1.177580         3.385941
 H         2.538453        -2.517942         2.153495
 H         4.656437        -0.976453         2.035502
 H         4.321476         1.219545         0.399909
 H         4.387181        -1.209844        -0.815106
