19
Iteration:  2486
 C         0.233524         0.151866        -0.420671
 C         1.419850        -0.166320         0.406631
 C         1.298935        -0.773497         1.843529
 C         2.622289        -1.517461         2.212030
 C         3.809730        -0.836110         1.503191
 C         3.510025         0.529500         0.721476
 O         2.226330         0.986550         0.523115
 C         3.581941        -0.803082        -0.031048
 O         2.212841        -1.205985        -0.340493
 H        -0.579627         0.710600         0.054203
 H         0.399828         0.819821        -1.314307
 H        -0.078445        -0.876017        -0.659624
 H         1.081937        -0.036518         2.548041
 H         0.469576        -1.449956         1.884093
 H         2.899296        -1.333594         3.191951
 H         2.673229        -2.639043         2.093342
 H         4.806928        -1.097427         1.939273
 H         4.276807         1.255761         0.426141
 H         4.361004        -0.917659        -0.817512
