19
Iteration:  1040charge 0 multiplicity 1
 C         0.120078         0.092267        -0.208896
 C         1.451423        -0.216499         0.309707
 C         1.272064        -1.046319         1.555828
 C         2.653455        -1.355996         2.346924
 C         3.785169        -0.760604         1.598169
 C         3.551987         0.491276         0.773271
 O         2.249224         0.924267         0.689462
 C         3.598542        -0.856119        -0.018265
 O         2.257836        -0.926220        -0.682631
 H        -0.383955         0.728119         0.513799
 H         0.215976         0.698144        -1.127737
 H        -0.345639        -0.914910        -0.188472
 H         0.670959        -0.384703         2.290495
 H         0.623811        -2.037145         1.346377
 H         2.628406        -0.821775         3.329736
 H         2.676229        -2.527118         2.447987
 H         4.896637        -0.895049         1.895942
 H         4.325794         1.208648         0.828916
 H         4.443920        -1.247619        -0.650021
