19
Iteration:   760charge 0 multiplicity 1
 C         0.143645         0.223135        -0.215349
 C         1.440719        -0.294629         0.359307
 C         1.274819        -1.263496         1.535183
 C         2.564968        -1.172899         2.375958
 C         3.744502        -0.764700         1.462658
 C         3.610368         0.482396         0.761310
 O         2.224972         0.837402         0.801705
 C         3.632161        -0.784338        -0.046112
 O         2.308062        -0.959122        -0.657981
 H        -0.527878         0.695172         0.486552
 H         0.332648         1.075011        -0.888648
 H        -0.510525        -0.564319        -0.655168
 H         0.361947        -0.972923         2.156505
 H         1.215298        -2.271625         1.090708
 H         2.558656        -0.371414         3.157513
 H         2.796000        -2.159168         2.873802
 H         4.783053        -0.950856         1.814466
 H         4.209977         1.347333         0.688477
 H         4.377284        -1.042566        -0.735118
