19
Iteration:  2553
 C         0.116144         0.191410        -0.277072
 C         1.460032        -0.285043         0.340502
 C         1.289616        -0.984743         1.737887
 C         2.624227        -1.120086         2.422965
 C         3.718399        -0.988340         1.396926
 C         3.562191         0.451520         0.735631
 O         2.259709         0.932056         0.645862
 C         3.646292        -0.895914        -0.056025
 O         2.270791        -1.010789        -0.564734
 H        -0.077031         1.121757         0.317813
 H         0.013609         0.434899        -1.432942
 H        -0.531422        -0.655242        -0.097804
 H         0.461105        -0.603381         2.219552
 H         1.104037        -1.974740         1.340984
 H         2.679505        -0.368328         3.118344
 H         2.560570        -2.128454         2.974668
 H         4.749370        -0.968734         1.712548
 H         4.347071         1.261258         0.741035
 H         4.261705        -1.341531        -0.720116
