19
Iteration:  3096charge 0 multiplicity 1
 C         0.080950         0.139857        -0.206504
 C         1.479715        -0.173400         0.308483
 C         1.263081        -0.990273         1.653223
 C         2.617303        -1.259157         2.440707
 C         3.713898        -0.812865         1.496386
 C         3.662540         0.423741         0.730736
 O         2.318966         0.981745         0.442091
 C         3.569585        -0.966005        -0.024226
 O         2.224272        -1.048534        -0.489647
 H        -0.196908         1.115953         0.283181
 H         0.110276         0.354773        -1.255703
 H        -0.560310        -0.772021         0.000615
 H         0.602927        -0.385803         2.326498
 H         0.825265        -1.907612         1.414579
 H         2.540968        -0.615751         3.378923
 H         2.734402        -2.287462         2.756732
 H         4.695936        -0.667433         1.980382
 H         4.485266         1.168258         0.753242
 H         4.483971        -1.332678        -0.589419
