19
Iteration:  4034
 C         0.080385         0.023298        -0.278496
 C         1.494978        -0.200118         0.384728
 C         1.252432        -0.801913         1.787936
 C         2.521691        -1.045365         2.382370
 C         3.726565        -0.944930         1.460584
 C         3.700191         0.325979         0.596323
 O         2.405774         0.961869         0.558023
 C         3.572531        -0.943525        -0.009287
 O         2.188000        -1.034937        -0.514942
 H        -0.421694         0.665730         0.374201
 H         0.159041         0.641773        -1.221173
 H        -0.293897        -0.930374        -0.542752
 H         0.809836        -0.105572         2.454210
 H         0.495539        -1.654702         1.717565
 H         2.692125        -0.534787         3.307087
 H         2.349841        -2.060572         2.844506
 H         4.685272        -1.332809         1.824439
 H         4.600944         0.892932         0.496712
 H         4.298967        -1.425738        -0.754958
