19
Iteration:   813
 C         0.173295         0.103003        -0.274257
 C         1.460197        -0.230919         0.360266
 C         1.226296        -1.192827         1.606964
 C         2.579148        -1.366108         2.275235
 C         3.775858        -0.696483         1.574387
 C         3.599593         0.439976         0.699884
 O         2.261606         1.014273         0.775555
 C         3.595489        -0.764422        -0.079809
 O         2.276668        -0.953967        -0.571207
 H        -0.426942         0.740145         0.394887
 H         0.184822         0.468155        -1.344454
 H        -0.510449        -0.783474        -0.425119
 H         0.593069        -0.545229         2.249010
 H         0.842374        -2.102176         1.357547
 H         2.579131        -1.013988         3.361406
 H         2.935000        -2.484600         2.307007
 H         4.777862        -0.893824         1.961027
 H         4.272539         1.275264         0.742913
 H         4.281461        -1.177203        -0.739955
