19
Iteration:   249charge 0 multiplicity 1
 C         0.200336         0.048069        -0.337998
 C         1.441997        -0.187653         0.404082
 C         1.308642        -1.079531         1.659162
 C         2.616484        -1.337473         2.381614
 C         3.729554        -0.818977         1.452736
 C         3.581618         0.463270         0.777141
 O         2.275547         0.943948         0.808268
 C         3.556774        -0.763077        -0.158601
 O         2.223821        -0.912693        -0.614868
 H        -0.622953         0.535221         0.238748
 H         0.290531         0.665328        -1.252765
 H        -0.215308        -0.923061        -0.527684
 H         0.593433        -0.639071         2.349519
 H         0.791037        -1.996004         1.330816
 H         2.739647        -0.854346         3.422360
 H         2.767969        -2.395012         2.526223
 H         4.663972        -0.976477         1.883283
 H         4.400877         1.289870         0.657176
 H         4.433008        -1.148409        -0.773913
