19
Iteration:  2871charge 0 multiplicity 1
 C         0.127989         0.254264        -0.256067
 C         1.472376        -0.252745         0.282413
 C         1.328038        -0.972933         1.653114
 C         2.670999        -1.227002         2.477662
 C         3.679330        -0.820887         1.566651
 C         3.562502         0.434653         0.659541
 O         2.267215         0.901988         0.554381
 C         3.602691        -0.944263         0.000099
 O         2.249451        -1.049234        -0.576975
 H        -0.303275         0.783654         0.630827
 H         0.267952         0.734317        -1.218975
 H        -0.582653        -0.627801        -0.248480
 H         0.728310        -0.347894         2.325061
 H         0.627875        -1.897167         1.553336
 H         2.707222        -0.604959         3.322023
 H         2.846026        -2.346750         2.757009
 H         4.703453        -0.957107         1.793702
 H         4.236549         1.334095         0.580028
 H         4.234660        -1.424148        -0.658314
