19
Iteration:   759charge 0 multiplicity 1
 C         0.145185         0.218346        -0.217408
 C         1.441906        -0.293306         0.356632
 C         1.276054        -1.263888         1.537451
 C         2.561955        -1.173556         2.367095
 C         3.751053        -0.763430         1.464202
 C         3.612504         0.480156         0.753152
 O         2.224429         0.837311         0.808918
 C         3.623914        -0.783275        -0.044652
 O         2.306920        -0.954269        -0.653782
 H        -0.532962         0.709936         0.470988
 H         0.339783         1.072319        -0.877249
 H        -0.486506        -0.587426        -0.652677
 H         0.345073        -0.982189         2.125390
 H         1.206086        -2.246299         1.132911
 H         2.554736        -0.371279         3.160645
 H         2.800168        -2.176163         2.887961
 H         4.757273        -0.965890         1.805584
 H         4.219169         1.378939         0.678238
 H         4.403837        -1.070213        -0.727450
