19
Iteration:  1204charge 0 multiplicity 1
 C         0.230674         0.213491        -0.399008
 C         1.413051        -0.273780         0.406518
 C         1.291482        -1.144510         1.660674
 C         2.650439        -1.200266         2.343260
 C         3.771079        -0.879080         1.379893
 C         3.551224         0.464850         0.716038
 O         2.189616         0.900145         0.837569
 C         3.547492        -0.725676        -0.085402
 O         2.288455        -1.071474        -0.516443
 H        -0.295410         0.979868         0.212408
 H         0.552796         0.789711        -1.226522
 H        -0.567740        -0.464038        -0.628097
 H         0.650370        -0.638824         2.293436
 H         0.801155        -2.133387         1.449315
 H         2.737659        -0.298413         2.917980
 H         2.780939        -2.230338         2.824621
 H         4.700611        -1.133399         1.774970
 H         4.250923         1.294228         0.808955
 H         4.330215        -0.945555        -0.739921
