19
Iteration:  1360
 C         0.200068         0.232840        -0.334678
 C         1.396600        -0.236896         0.418509
 C         1.274250        -0.871410         1.708633
 C         2.655144        -1.484103         2.185674
 C         3.777847        -0.796662         1.470189
 C         3.509256         0.525127         0.726664
 O         2.178194         0.900502         0.577001
 C         3.648230        -0.727233        -0.058256
 O         2.271220        -1.201973        -0.343291
 H        -0.305524         0.928961         0.335898
 H         0.540608         0.899682        -1.172902
 H        -0.395990        -0.509874        -0.790541
 H         0.929844        -0.272311         2.539893
 H         0.531919        -1.625517         1.544926
 H         2.777394        -1.268591         3.301200
 H         2.727291        -2.638169         2.386335
 H         4.865579        -0.726764         1.906620
 H         4.262789         1.305399         0.742967
 H         4.391541        -1.031112        -0.848832
