19
Iteration:   901charge 0 multiplicity 1
 C         0.044760         0.064427        -0.234198
 C         1.465234        -0.193093         0.368076
 C         1.204382        -1.003105         1.642940
 C         2.638956        -1.522310         2.093957
 C         3.765780        -0.692541         1.574267
 C         3.510231         0.562096         0.745538
 O         2.301936         0.999055         0.603833
 C         3.695223        -0.791690         0.017086
 O         2.330018        -1.054811        -0.422108
 H        -0.682198         0.501550         0.488063
 H         0.160626         0.952854        -0.928775
 H        -0.412315        -0.947262        -0.545274
 H         0.808155        -0.339550         2.489390
 H         0.535778        -1.760893         1.346214
 H         2.709782        -1.573794         3.236176
 H         2.521377        -2.565729         1.623492
 H         4.812763        -0.721888         2.083180
 H         4.230727         1.306330         0.668643
 H         4.373704        -1.093966        -0.773886
