19
Iteration:   771
 C         0.093013         0.317655        -0.188512
 C         1.445075        -0.293821         0.342070
 C         1.326835        -1.275858         1.523025
 C         2.637656        -1.179371         2.434904
 C         3.756022        -0.885788         1.510590
 C         3.488720         0.510382         0.827661
 O         2.185163         0.903235         0.657162
 C         3.651781        -0.768603        -0.106947
 O         2.345725        -1.006875        -0.641067
 H        -0.195804         0.576745         0.804752
 H         0.326769         0.996856        -1.029839
 H        -0.537057        -0.435870        -0.735296
 H         0.491220        -1.118295         2.297531
 H         1.040102        -2.245992         1.042224
 H         2.377769        -0.411151         3.241984
 H         2.778934        -2.198332         2.976821
 H         4.792045        -0.967166         1.965989
 H         4.274244         1.187831         0.920576
 H         4.426265        -0.876585        -0.778575
