19
Iteration:  3926charge 0 multiplicity 1
 C         0.177917         0.120616        -0.334305
 C         1.479673        -0.153267         0.356155
 C         1.290307        -0.837437         1.748443
 C         2.653081        -1.191930         2.428566
 C         3.711923        -0.911571         1.498363
 C         3.635491         0.359598         0.659237
 O         2.353956         0.969809         0.526002
 C         3.511179        -0.988215        -0.024276
 O         2.146623        -1.005518        -0.461774
 H        -0.621950         0.623261         0.183169
 H         0.209903         0.509474        -1.430749
 H        -0.209569        -0.904925        -0.471471
 H         0.782204        -0.217619         2.473721
 H         0.636861        -1.669202         1.482222
 H         2.869484        -0.439084         3.247348
 H         2.569181        -2.219697         2.883123
 H         4.727321        -1.163894         1.871533
 H         4.546797         0.892813         0.512029
 H         4.024781        -1.662001        -0.682388
