19
Iteration:  3103charge 0 multiplicity 1
 C         0.049554         0.107316        -0.222489
 C         1.407342        -0.157228         0.302345
 C         1.266405        -0.961215         1.687555
 C         2.613695        -1.285871         2.415032
 C         3.749352        -0.872307         1.552552
 C         3.631818         0.418739         0.707415
 O         2.318613         1.045992         0.420594
 C         3.614113        -0.938539         0.041991
 O         2.275810        -1.062954        -0.521083
 H        -0.308430         0.953922         0.368255
 H         0.151957         0.313291        -1.282135
 H        -0.714496        -0.594762         0.080289
 H         0.670881        -0.202822         2.310001
 H         0.647516        -1.878831         1.488852
 H         2.759536        -0.703609         3.279585
 H         2.744518        -2.356555         2.680595
 H         4.748782        -0.863795         1.960832
 H         4.557843         1.067688         0.647746
 H         4.304148        -1.247468        -0.664715
