19
Iteration:  2983charge 0 multiplicity 1
 C         0.109639         0.125055        -0.192855
 C         1.463620        -0.179629         0.293563
 C         1.278493        -0.791261         1.700875
 C         2.603851        -1.332249         2.315739
 C         3.759913        -0.850493         1.543482
 C         3.589284         0.445476         0.726016
 O         2.293667         0.988126         0.457028
 C         3.567260        -0.879340         0.041590
 O         2.295709        -1.165535        -0.479250
 H        -0.609085         0.447171         0.582213
 H        -0.043387         0.864690        -1.096690
 H        -0.386377        -0.806206        -0.502113
 H         0.794005        -0.160290         2.531579
 H         0.626271        -1.675556         1.461920
 H         2.677749        -1.070759         3.364018
 H         2.469412        -2.481146         2.292108
 H         4.843905        -0.985982         1.827283
 H         4.334955         1.183715         0.477641
 H         4.460867        -0.982677        -0.643830
