19
Iteration:  2730charge 0 multiplicity 1
 C         0.097435         0.178490        -0.338618
 C         1.361992        -0.205681         0.352423
 C         1.330039        -0.822024         1.851254
 C         2.649677        -1.450748         2.186102
 C         3.782277        -0.793922         1.546690
 C         3.545307         0.530866         0.687562
 O         2.244391         0.977041         0.470187
 C         3.629166        -0.886089         0.109699
 O         2.288048        -1.144294        -0.452056
 H        -0.410451         1.015136         0.272160
 H         0.345540         0.426560        -1.387999
 H        -0.636212        -0.734734        -0.270754
 H         1.036220         0.008420         2.473790
 H         0.534997        -1.524974         1.871072
 H         2.794752        -1.586237         3.253744
 H         2.576751        -2.530924         1.710150
 H         4.745088        -0.870546         1.976558
 H         4.420801         1.166003         0.656462
 H         4.380603        -1.355847        -0.504820
