19
Iteration:  2205charge 0 multiplicity 1
 C         0.047077         0.099983        -0.285266
 C         1.474275        -0.203149         0.355185
 C         1.273320        -0.887816         1.749105
 C         2.595371        -1.453243         2.314965
 C         3.755100        -0.909049         1.479280
 C         3.576594         0.492796         0.751062
 O         2.267976         1.048956         0.542738
 C         3.657105        -0.822927        -0.019150
 O         2.289248        -1.071730        -0.507315
 H        -0.340252         0.857693         0.411667
 H         0.222867         0.679093        -1.238117
 H        -0.432943        -0.912204        -0.447947
 H         0.722053        -0.107001         2.348416
 H         0.538271        -1.791172         1.593054
 H         2.713580        -0.856477         3.297087
 H         2.553741        -2.465623         2.530733
 H         4.821012        -1.008971         1.718290
 H         4.321194         1.275036         0.860760
 H         4.478326        -1.158978        -0.703087
