19
Iteration:   688
 C         0.176701         0.139981        -0.251674
 C         1.483227        -0.362820         0.359631
 C         1.250836        -1.029485         1.690611
 C         2.629741        -1.490555         2.232353
 C         3.759652        -0.751473         1.525743
 C         3.469483         0.564914         0.753469
 O         2.150468         0.965850         0.684481
 C         3.636036        -0.732753        -0.003568
 O         2.382763        -0.982738        -0.582892
 H        -0.440056         0.824646         0.340009
 H         0.348399         0.783757        -1.132850
 H        -0.562154        -0.639804        -0.453761
 H         0.863563        -0.344473         2.388794
 H         0.543898        -1.848703         1.478202
 H         2.680387        -1.232049         3.309237
 H         2.778193        -2.561568         2.193570
 H         4.834018        -0.978496         1.909069
 H         4.284989         1.145302         0.517726
 H         4.327708        -0.983420        -0.769274
