19
Iteration:  1160
 C         0.063241         0.020645        -0.225321
 C         1.473926        -0.196104         0.326316
 C         1.277668        -1.012236         1.650889
 C         2.604976        -1.420900         2.366558
 C         3.707124        -0.856799         1.470988
 C         3.583181         0.487911         0.794465
 O         2.286328         1.070313         0.593345
 C         3.639740        -0.845173        -0.022350
 O         2.312422        -0.910519        -0.528387
 H        -0.672980         0.538615         0.405610
 H         0.146437         0.501512        -1.184289
 H        -0.400088        -0.970734        -0.286604
 H         0.743627        -0.411125         2.305010
 H         0.689689        -1.862486         1.240742
 H         2.457095        -0.841565         3.280250
 H         2.842991        -2.564376         2.331997
 H         4.724327        -1.161423         1.748810
 H         4.345089         1.257804         0.588039
 H         4.407904        -1.213487        -0.722517
