19
Iteration:  1505
 C         0.153856         0.088943        -0.288250
 C         1.427066        -0.232853         0.366545
 C         1.275303        -1.007438         1.672914
 C         2.584724        -1.296619         2.352486
 C         3.792970        -0.905093         1.424363
 C         3.535613         0.464061         0.761196
 O         2.283924         0.985521         0.654138
 C         3.591828        -0.813827        -0.065153
 O         2.269773        -0.993473        -0.528014
 H        -0.545471         0.695367         0.292990
 H         0.281248         0.781914        -1.075157
 H        -0.311301        -0.887246        -0.580564
 H         0.650333        -0.462609         2.460753
 H         0.744567        -1.891157         1.559622
 H         2.718377        -0.660011         3.322171
 H         2.702522        -2.418387         2.782708
 H         4.794037        -1.103813         1.749770
 H         4.354002         1.234746         0.725134
 H         4.473849        -0.781280        -0.863495
