19
Iteration:   937charge 0 multiplicity 1
 C         0.192040         0.087438        -0.307974
 C         1.432577        -0.291398         0.362995
 C         1.298440        -1.006978         1.705414
 C         2.682758        -1.403301         2.327959
 C         3.757260        -0.875544         1.445789
 C         3.450396         0.479125         0.800068
 O         2.194735         0.972698         0.658188
 C         3.599434        -0.749501        -0.035162
 O         2.310053        -0.905994        -0.581074
 H        -0.512427         0.522530         0.436314
 H         0.416963         0.766527        -1.118939
 H        -0.290032        -0.686375        -0.884400
 H         0.685743        -0.388203         2.335853
 H         0.631839        -1.850580         1.526071
 H         2.689793        -0.912032         3.366758
 H         2.879431        -2.537963         2.622205
 H         4.762998        -1.060361         1.761580
 H         4.301440         1.230220         0.963792
 H         4.458552        -1.078070        -0.750897
