19
Iteration:  1823
 C         0.111862         0.152577        -0.301477
 C         1.321282        -0.254591         0.403270
 C         1.292990        -0.904489         1.772327
 C         2.646585        -1.632287         2.116131
 C         3.707863        -0.672398         1.543892
 C         3.522609         0.547644         0.639552
 O         2.291514         1.036327         0.567771
 C         3.733277        -0.779757         0.078886
 O         2.303526        -1.152607        -0.402334
 H        -0.492686         0.759560         0.387312
 H         0.412831         0.750931        -1.211911
 H        -0.498509        -0.604602        -0.772156
 H         1.039947        -0.021556         2.497034
 H         0.369309        -1.456442         1.756409
 H         2.605598        -1.774190         3.188921
 H         2.717852        -2.621319         1.631306
 H         4.711773        -0.600249         2.066464
 H         4.355947         1.255907         0.446304
 H         4.280450        -1.361890        -0.579142
