19
Iteration:  2942charge 0 multiplicity 1
 C         0.227738         0.087991        -0.419135
 C         1.447626        -0.174617         0.444594
 C         1.286326        -0.714759         1.965341
 C         2.618237        -1.504923         2.181386
 C         3.810467        -0.767168         1.537182
 C         3.526066         0.479314         0.658589
 O         2.230272         0.948795         0.491836
 C         3.520597        -0.823353         0.024791
 O         2.254834        -1.151726        -0.443466
 H        -0.301439         0.938880         0.065227
 H         0.609681         0.274890        -1.442502
 H        -0.550524        -0.681426        -0.404283
 H         0.955317         0.165539         2.518572
 H         0.526054        -1.381155         2.133696
 H         2.853074        -1.786224         3.272497
 H         2.517567        -2.389819         1.569287
 H         4.751754        -1.076041         2.005898
 H         4.335269         1.200045         0.520050
 H         4.352174        -1.061977        -0.639882
