19
Iteration:  3456
 C         0.162513         0.113214        -0.255076
 C         1.505200        -0.244312         0.360443
 C         1.249333        -0.828742         1.789106
 C         2.582402        -1.145020         2.421793
 C         3.751981        -0.902015         1.425816
 C         3.578256         0.408585         0.707284
 O         2.285333         0.912836         0.552570
 C         3.604990        -0.893794        -0.082306
 O         2.252444        -1.098888        -0.512649
 H        -0.341818         1.005013         0.049300
 H         0.242445         0.305605        -1.366487
 H        -0.700465        -0.513735        -0.166141
 H         0.599834        -0.084961         2.309828
 H         0.704821        -1.687776         1.606930
 H         2.664363        -0.539251         3.343348
 H         2.659124        -2.218735         2.802478
 H         4.698439        -1.276543         1.833554
 H         4.436580         1.131655         0.514957
 H         4.277916        -1.297914        -0.889011
