19
Iteration:  1524
 C         0.102802        -0.030180        -0.304414
 C         1.470184        -0.222824         0.364080
 C         1.242018        -0.851872         1.735926
 C         2.621234        -1.347221         2.315390
 C         3.756439        -0.856568         1.448769
 C         3.659097         0.437762         0.737727
 O         2.242925         0.956142         0.726707
 C         3.591898        -0.791723        -0.068680
 O         2.311328        -0.918289        -0.593231
 H        -0.585422         0.458448         0.360617
 H         0.021986         0.497615        -1.251726
 H        -0.211259        -1.079092        -0.478227
 H         0.737818        -0.059820         2.378076
 H         0.479195        -1.650019         1.466058
 H         2.790384        -1.105699         3.330972
 H         2.544588        -2.413296         2.438168
 H         4.661132        -1.274355         1.957326
 H         4.313029         1.342558         0.723651
 H         4.121047        -1.414911        -0.723648
