19
Iteration:   895charge 0 multiplicity 1
 C         0.063235         0.076771        -0.259795
 C         1.475862        -0.234643         0.388098
 C         1.236215        -0.977171         1.673207
 C         2.608537        -1.538597         2.053226
 C         3.784766        -0.690511         1.575126
 C         3.549717         0.574623         0.754706
 O         2.238696         1.011531         0.604247
 C         3.684972        -0.843448         0.053550
 O         2.301475        -1.030640        -0.434263
 H        -0.554773         0.552099         0.512319
 H         0.242279         0.851823        -0.978352
 H        -0.319376        -0.829809        -0.622910
 H         0.757897        -0.393434         2.418789
 H         0.436890        -1.809712         1.582332
 H         2.845686        -1.683190         3.101742
 H         2.745969        -2.520900         1.596577
 H         4.710699        -0.605416         2.045821
 H         4.253151         1.472846         0.569409
 H         4.458623        -1.182006        -0.715012
