19
Iteration:   269charge 0 multiplicity 1
 C         0.078036         0.065849        -0.229139
 C         1.455137        -0.316278         0.326785
 C         1.230459        -1.124712         1.552480
 C         2.595360        -1.163660         2.299829
 C         3.821569        -0.937646         1.417130
 C         3.612011         0.478740         0.720129
 O         2.251885         0.920369         0.878492
 C         3.619132        -0.789070        -0.012198
 O         2.314307        -0.858568        -0.624107
 H        -0.455135         0.742050         0.501987
 H         0.147298         0.727168        -1.189823
 H        -0.625368        -0.808342        -0.281953
 H         0.405857        -0.692634         2.092511
 H         0.748897        -2.092667         1.357871
 H         2.531405        -0.394223         3.050447
 H         2.691961        -2.035786         2.956807
 H         4.776903        -1.278640         1.548096
 H         4.357062         1.339931         0.739793
 H         4.485036        -1.106174        -0.661214
