19
Iteration:  2939
 C         0.248752         0.066777        -0.421000
 C         1.418698        -0.152955         0.432869
 C         1.285457        -0.717396         1.932176
 C         2.639349        -1.491781         2.189774
 C         3.843103        -0.765708         1.562797
 C         3.538954         0.467102         0.672462
 O         2.230214         0.986015         0.518083
 C         3.504259        -0.831186        -0.011563
 O         2.229117        -1.170796        -0.427836
 H        -0.337628         0.930462        -0.047078
 H         0.644161         0.238602        -1.546161
 H        -0.561174        -0.663088        -0.367782
 H         0.947759         0.196447         2.526528
 H         0.521684        -1.455710         2.209102
 H         2.843835        -1.833174         3.193118
 H         2.466145        -2.436727         1.493242
 H         4.765573        -1.141886         2.112731
 H         4.263099         1.212905         0.489270
 H         4.409915        -1.042277        -0.709318
