19
Iteration:   104charge 0 multiplicity 1
 C         0.255199         0.254866        -0.255328
 C         1.450049        -0.330722         0.373311
 C         1.190151        -1.092394         1.611982
 C         2.601228        -1.280447         2.254934
 C         3.797206        -0.750844         1.457598
 C         3.554304         0.547524         0.672513
 O         2.223997         0.877981         0.838090
 C         3.604135        -0.721854        -0.081115
 O         2.295681        -1.156148        -0.535702
 H        -0.324369         0.951700         0.440399
 H         0.293888         0.835471        -1.266654
 H        -0.616822        -0.520881        -0.414231
 H         0.423313        -0.590187         2.226530
 H         0.717938        -2.059725         1.384476
 H         2.600772        -0.727037         3.219623
 H         2.831520        -2.356181         2.525612
 H         4.756164        -1.119502         1.963585
 H         4.241345         1.368560         0.594482
 H         4.395096        -0.905324        -0.831266
