19
Iteration:   779
 C         0.112603         0.314052        -0.177823
 C         1.446942        -0.272931         0.290212
 C         1.367714        -1.279678         1.554612
 C         2.626423        -1.259046         2.421930
 C         3.791543        -0.908902         1.519955
 C         3.473691         0.445495         0.821264
 O         2.138089         0.957035         0.580135
 C         3.615133        -0.723840        -0.071284
 O         2.371509        -1.016146        -0.601929
 H        -0.340918         0.852283         0.709550
 H         0.312731         1.191581        -0.809875
 H        -0.581978        -0.483624        -0.495239
 H         0.435625        -1.029447         2.080853
 H         1.182771        -2.222380         1.189014
 H         2.503820        -0.408431         3.160307
 H         2.741006        -2.205249         3.085687
 H         4.754668        -1.008398         1.903182
 H         4.172677         1.341935         1.001098
 H         4.515578        -0.922871        -0.708561
