19
Iteration:  1970charge 0 multiplicity 1
 C         0.082958         0.183493        -0.319787
 C         1.480103        -0.294142         0.352994
 C         1.280368        -1.031252         1.680318
 C         2.646699        -1.303025         2.386997
 C         3.725625        -0.772659         1.441375
 C         3.582824         0.458583         0.758661
 O         2.242864         0.935867         0.683709
 C         3.563421        -0.890995        -0.001719
 O         2.335322        -0.994544        -0.587918
 H        -0.369380         0.840784         0.383994
 H         0.151651         0.752781        -1.227023
 H        -0.507594        -0.654464        -0.531599
 H         0.651720        -0.342415         2.316970
 H         0.707674        -1.951450         1.325254
 H         2.705535        -0.869434         3.342893
 H         2.667954        -2.385853         2.583647
 H         4.753374        -1.010905         1.776051
 H         4.354183         1.295492         0.650254
 H         4.350724        -0.991329        -0.655591
