19
Iteration:   644charge 0 multiplicity 1
 C         0.153424         0.046590        -0.343287
 C         1.397147        -0.172869         0.393184
 C         1.281409        -0.989333         1.739762
 C         2.633569        -1.610032         2.116542
 C         3.814397        -0.867776         1.513776
 C         3.470962         0.520973         0.778446
 O         2.142378         1.133120         0.547965
 C         3.662016        -0.680876        -0.025978
 O         2.355095        -1.052104        -0.358297
 H        -0.442629         0.742654         0.286741
 H         0.444198         0.693146        -1.215055
 H        -0.510405        -0.841123        -0.441115
 H         1.034527        -0.275809         2.457358
 H         0.699811        -1.861375         1.720218
 H         2.690364        -1.650961         3.223186
 H         2.667238        -2.677881         1.754116
 H         4.837722        -1.019940         2.096641
 H         4.209612         1.277296         0.767187
 H         4.509755        -0.688960        -0.668452
