19
Iteration:  1015
 C         0.096598         0.254202        -0.217451
 C         1.423579        -0.297474         0.340553
 C         1.317522        -1.218712         1.592657
 C         2.638924        -1.269910         2.445883
 C         3.715656        -0.831453         1.501634
 C         3.562597         0.528928         0.707219
 O         2.186722         0.900443         0.651058
 C         3.594668        -0.804114        -0.013783
 O         2.371568        -0.947608        -0.629258
 H        -0.202072         1.017503         0.496620
 H         0.383535         0.917234        -1.041215
 H        -0.660767        -0.499398        -0.366671
 H         0.512192        -0.868967         2.179377
 H         0.948587        -2.226443         1.313191
 H         2.664414        -0.682999         3.421862
 H         2.785404        -2.463195         2.637949
 H         4.713434        -1.033582         1.842905
 H         4.362937         1.266215         0.550816
 H         4.422375        -1.062501        -0.585127
