19
Iteration:  4375
 C         0.183692         0.092064        -0.361023
 C         1.440639        -0.113105         0.392680
 C         1.306331        -0.703846         1.776678
 C         2.609255        -1.283542         2.396136
 C         3.747420        -0.865569         1.449766
 C         3.649163         0.421813         0.671909
 O         2.357458         0.993732         0.466152
 C         3.519144        -1.002995         0.006187
 O         2.143341        -1.160668        -0.410490
 H        -0.584861         0.784145         0.045047
 H         0.365488         0.363235        -1.389545
 H        -0.307539        -0.904024        -0.420247
 H         0.833865         0.001478         2.549984
 H         0.542576        -1.518393         1.839805
 H         2.654254        -0.876673         3.424114
 H         2.664013        -2.386964         2.394900
 H         4.775867        -1.096779         1.809000
 H         4.457857         1.134391         0.757919
 H         4.176807        -1.420269        -0.808257
