19
Iteration:  1381charge 0 multiplicity 1
 C         0.147459         0.140249        -0.309216
 C         1.451605        -0.241553         0.381246
 C         1.198445        -1.001104         1.725525
 C         2.611641        -1.330200         2.308390
 C         3.772852        -0.800232         1.477128
 C         3.600511         0.498977         0.687228
 O         2.260547         1.003664         0.639197
 C         3.614167        -0.856559        -0.013587
 O         2.282267        -1.021672        -0.502249
 H        -0.475190         0.781685         0.335107
 H         0.146162         0.583058        -1.337498
 H        -0.371318        -0.786888        -0.466802
 H         0.714481        -0.327292         2.414986
 H         0.635618        -1.939793         1.732634
 H         2.664118        -1.425132         3.401460
 H         2.740821        -2.484658         2.169157
 H         4.811184        -1.135363         1.870982
 H         4.372576         1.230844         0.469817
 H         4.375596        -1.168729        -0.776320
