19
Iteration:  4654
 C         0.163228         0.195661        -0.248660
 C         1.507881        -0.192159         0.382191
 C         1.224881        -0.829684         1.780193
 C         2.575448        -1.210812         2.364625
 C         3.735247        -0.855193         1.468485
 C         3.603892         0.372573         0.680719
 O         2.343588         0.967372         0.444680
 C         3.567638        -1.043691        -0.023722
 O         2.251818        -1.114238        -0.442737
 H        -0.450892         0.902099         0.335122
 H         0.333222         0.595503        -1.264816
 H        -0.511566        -0.655643        -0.389352
 H         0.817965         0.011526         2.384171
 H         0.441279        -1.588352         1.616486
 H         2.578232        -0.515174         3.301421
 H         2.632716        -2.298127         2.729236
 H         4.700839        -1.133008         1.904432
 H         4.311044         1.131895         0.347531
 H         4.146432        -1.400679        -0.760802
