19
Iteration:  3837
 C         0.270321         0.161087        -0.440496
 C         1.438004        -0.208403         0.480756
 C         1.283616        -0.746843         1.900386
 C         2.594724        -1.423556         2.293446
 C         3.757364        -0.756827         1.460561
 C         3.623420         0.412572         0.536886
 O         2.264099         0.991199         0.502220
 C         3.525104        -0.973249        -0.021142
 O         2.159216        -1.099393        -0.298817
 H        -0.303314         1.094578        -0.108122
 H         0.837719         0.245308        -1.365941
 H        -0.381511        -0.731955        -0.677253
 H         1.002189         0.017719         2.532703
 H         0.537553        -1.608842         1.843631
 H         2.738674        -1.188392         3.362440
 H         2.856145        -2.480035         2.063349
 H         4.713731        -0.994373         1.969926
 H         4.447726         1.213147         0.608386
 H         3.919545        -1.465665        -0.918574
