19
Iteration:  4053
 C         0.142453         0.123431        -0.371190
 C         1.417714        -0.149065         0.350981
 C         1.225184        -0.655865         1.797740
 C         2.667969        -1.235172         2.511735
 C         3.808401        -0.879644         1.450421
 C         3.591747         0.412889         0.672770
 O         2.344086         0.899977         0.580536
 C         3.527240        -1.030660        -0.066438
 O         2.230472        -1.132056        -0.541587
 H        -0.647261         0.623475         0.283965
 H         0.256591         0.762436        -1.213809
 H        -0.279567        -0.862903        -0.719589
 H         0.739895         0.257428         2.118068
 H         0.474895        -1.570584         1.971674
 H         2.793378        -0.705470         3.439446
 H         2.770781        -2.276359         2.847588
 H         4.826262        -1.100677         1.820371
 H         4.309709         1.138782         0.554725
 H         4.055795        -1.641605        -0.797517
