19
Iteration:  3761charge 0 multiplicity 1
 C         0.171120         0.255773        -0.270847
 C         1.471851        -0.162393         0.416715
 C         1.385118        -1.107580         1.634359
 C         2.566842        -1.052901         2.558209
 C         3.714036        -0.804645         1.472639
 C         3.698100         0.363621         0.600765
 O         2.308328         0.981241         0.516115
 C         3.472204        -0.979941        -0.002204
 O         2.171031        -1.132576        -0.530238
 H        -0.308613         1.047283         0.435421
 H         0.336952         0.880797        -1.133695
 H        -0.613589        -0.549199        -0.406000
 H         0.496910        -0.795093         2.231412
 H         1.058073        -2.141122         1.275022
 H         2.553535        -0.284637         3.328501
 H         2.722675        -1.999140         3.096405
 H         4.633733        -1.324918         1.757308
 H         4.581285         1.014951         0.395991
 H         4.176141        -1.624505        -0.591087
