19
Iteration:   918charge 0 multiplicity 1
 C         0.065935         0.092506        -0.247095
 C         1.478224        -0.170009         0.379617
 C         1.290066        -0.983834         1.632536
 C         2.559196        -1.504368         2.233046
 C         3.766702        -0.857237         1.519357
 C         3.613957         0.547149         0.798020
 O         2.171309         1.023453         0.578515
 C         3.641351        -0.714583        -0.069169
 O         2.359505        -1.068389        -0.463361
 H        -0.563399         0.411977         0.583374
 H         0.021286         0.907553        -0.978955
 H        -0.150012        -0.906147        -0.528263
 H         0.623267        -0.503583         2.320421
 H         0.570954        -1.909957         1.524896
 H         2.704817        -1.292665         3.284492
 H         2.785074        -2.539367         2.143868
 H         4.758085        -0.950958         1.846413
 H         4.336441         1.427847         0.793563
 H         4.494585        -0.890071        -0.706400
