19
Iteration:  2511
 C         0.181276         0.160356        -0.328507
 C         1.441195        -0.231455         0.379437
 C         1.257690        -0.908517         1.803453
 C         2.614922        -1.405962         2.293894
 C         3.732021        -0.743548         1.525679
 C         3.603832         0.510389         0.608613
 O         2.252908         0.984372         0.535318
 C         3.639810        -0.907578        -0.030897
 O         2.215430        -1.089026        -0.396137
 H        -0.276424         1.009155         0.241376
 H         0.423073         0.786418        -1.274047
 H        -0.494361        -0.682002        -0.497118
 H         0.597578        -0.391839         2.548936
 H         0.663924        -1.825438         1.488406
 H         2.904941        -1.353052         3.316899
 H         2.711361        -2.516162         2.033582
 H         4.698506        -1.002482         1.907731
 H         4.354504         1.338878         0.637187
 H         4.330555        -1.424260        -0.564803
