19
Iteration:   821
 C         0.137375         0.061384        -0.350270
 C         1.468353        -0.238008         0.385904
 C         1.223983        -1.075509         1.617959
 C         2.612697        -1.409251         2.274179
 C         3.770289        -0.755852         1.546555
 C         3.604793         0.547331         0.716538
 O         2.250273         0.969340         0.823729
 C         3.612228        -0.763281        -0.068586
 O         2.248633        -0.953437        -0.553300
 H        -0.396354         0.793135         0.297337
 H         0.396532         0.311218        -1.393448
 H        -0.340445        -0.916335        -0.420232
 H         0.620326        -0.605505         2.400923
 H         0.580073        -1.989155         1.406316
 H         2.700666        -1.123423         3.284928
 H         2.686374        -2.473804         2.271433
 H         4.753266        -0.865828         1.830035
 H         4.544817         1.226251         0.494566
 H         4.372060        -1.057518        -0.875196
