19
Iteration:  2474charge 0 multiplicity 1
 C         0.166328         0.083441        -0.459020
 C         1.441628        -0.206642         0.386001
 C         1.300515        -0.709411         1.927383
 C         2.642743        -1.421809         2.232694
 C         3.774781        -0.846953         1.440625
 C         3.608026         0.471814         0.735438
 O         2.205911         0.951407         0.571334
 C         3.569549        -0.782645        -0.013944
 O         2.238328        -1.152322        -0.393204
 H        -0.550850         0.490682         0.241304
 H         0.571854         0.678634        -1.284232
 H        -0.327269        -0.776278        -0.971973
 H         1.112797         0.121121         2.515309
 H         0.515466        -1.415204         1.962172
 H         2.711218        -1.637612         3.277938
 H         2.420965        -2.388874         1.750423
 H         4.841119        -1.110990         1.727238
 H         4.236642         1.330045         0.818408
 H         4.373107        -1.184100        -0.786952
