19
Iteration:  4128charge 0 multiplicity 1
 C         0.126911         0.127124        -0.307615
 C         1.456380        -0.261004         0.333547
 C         1.253657        -0.710436         1.772236
 C         2.547331        -1.346743         2.366117
 C         3.825403        -0.806426         1.508531
 C         3.634174         0.388812         0.634414
 O         2.354315         0.982103         0.459788
 C         3.553987        -0.913653         0.023138
 O         2.181821        -1.161780        -0.406758
 H        -0.246312         1.085169         0.173076
 H         0.188541         0.340333        -1.371693
 H        -0.632838        -0.696743        -0.213663
 H         1.018321         0.239399         2.259162
 H         0.377046        -1.342574         1.912089
 H         2.627305        -1.010955         3.415584
 H         2.727912        -2.414750         2.439799
 H         4.865520        -0.894328         1.877046
 H         4.415284         1.066297         0.399260
 H         4.365405        -1.289328        -0.622753
