19
Iteration:  2596charge 0 multiplicity 1
 C         0.163877         0.216138        -0.305366
 C         1.418285        -0.209927         0.352942
 C         1.242061        -1.154723         1.614789
 C         2.623480        -1.047184         2.462993
 C         3.770501        -0.797140         1.425913
 C         3.600865         0.389469         0.596565
 O         2.338139         0.917146         0.763890
 C         3.501145        -0.958021         0.005037
 O         2.233185        -1.015994        -0.546790
 H        -0.258364         0.984921         0.403690
 H         0.388347         0.718204        -1.337994
 H        -0.426071        -0.652318        -0.554975
 H         0.415033        -0.942217         2.191335
 H         1.298722        -2.192458         1.332367
 H         2.717321        -0.285242         3.230434
 H         2.735988        -2.106735         2.895700
 H         4.739231        -0.991832         1.859324
 H         4.356811         1.189388         0.403120
 H         4.105648        -1.456724        -0.644397
