19
Iteration:    74
 C         0.087046         0.368013        -0.333192
 C         1.383925        -0.281061         0.423184
 C         1.403874        -1.271577         1.609557
 C         2.674597        -1.276846         2.419559
 C         3.774832        -0.827861         1.496338
 C         3.548596         0.478543         0.671791
 O         2.222804         0.911163         0.680543
 C         3.578045        -0.793228        -0.052470
 O         2.237301        -0.986167        -0.530483
 H        -0.442045         0.936543         0.395405
 H         0.581891         0.916803        -1.188305
 H        -0.436398        -0.427244        -0.893704
 H         0.554681        -1.057159         2.253013
 H         1.268274        -2.250986         1.079716
 H         2.550314        -0.373208         3.098098
 H         2.871109        -2.198602         2.927739
 H         4.766096        -1.074407         2.006157
 H         4.269324         1.223581         0.846733
 H         4.297394        -1.300869        -0.657963
