19
Iteration:   537
 C         0.130347         0.307047        -0.233503
 C         1.432692        -0.290101         0.309076
 C         1.371351        -1.274262         1.535989
 C         2.642350        -1.257352         2.445469
 C         3.715029        -0.754850         1.535623
 C         3.581601         0.506981         0.669523
 O         2.167959         0.845598         0.786880
 C         3.547104        -0.819625        -0.046732
 O         2.351514        -0.942417        -0.671379
 H        -0.396575         0.756849         0.578507
 H         0.226341         1.011184        -1.095836
 H        -0.538558        -0.467808        -0.674990
 H         0.561006        -0.883466         2.172537
 H         0.993468        -2.308118         1.451171
 H         2.330277        -0.526857         3.249628
 H         2.991723        -2.327905         2.776235
 H         4.773606        -1.019168         2.065513
 H         4.293165         1.377934         0.705110
 H         4.466550        -1.132345        -0.582169
