19
Iteration:  3032charge 0 multiplicity 1
 C         0.258390         0.240162        -0.404739
 C         1.465799        -0.292456         0.452465
 C         1.276866        -1.049356         1.729787
 C         2.656600        -0.954713         2.451269
 C         3.778438        -0.935600         1.418555
 C         3.620239         0.417776         0.655938
 O         2.221286         0.897238         0.737744
 C         3.488197        -0.874153        -0.067519
 O         2.177688        -1.125365        -0.529889
 H        -0.637099         0.674668         0.071530
 H         0.704079         0.884871        -1.131964
 H        -0.292553        -0.523899        -1.017076
 H         0.468284        -0.729006         2.352240
 H         1.025843        -2.018915         1.270746
 H         2.745000        -0.107779         3.232998
 H         2.789115        -1.919909         2.899889
 H         4.774529        -1.303825         1.682783
 H         4.331021         1.230456         0.415196
 H         4.227264        -1.216713        -0.838633
