19
Iteration:  3131charge 0 multiplicity 1
 C         0.178355         0.059187        -0.322728
 C         1.442709        -0.207019         0.352520
 C         1.273847        -0.723980         1.794024
 C         2.566224        -1.372336         2.329473
 C         3.733425        -0.839180         1.472654
 C         3.637335         0.483082         0.641544
 O         2.249339         0.910753         0.559147
 C         3.611807        -0.843022         0.001345
 O         2.254298        -1.121712        -0.443766
 H        -0.295741         0.885266         0.214655
 H         0.342606         0.323589        -1.423435
 H        -0.562075        -0.741564        -0.210963
 H         1.025747         0.174554         2.281056
 H         0.373942        -1.353529         1.957024
 H         2.827514        -1.259312         3.442866
 H         2.542060        -2.453958         2.134264
 H         4.783369        -0.892878         1.841837
 H         4.339953         1.255466         0.583237
 H         4.298218        -1.300600        -0.809100
