19
Iteration:   881
 C         0.213454         0.119824        -0.329366
 C         1.415821        -0.250805         0.382579
 C         1.295393        -0.969625         1.785470
 C         2.660909        -1.577284         2.147213
 C         3.756738        -0.719029         1.532391
 C         3.556025         0.556237         0.709361
 O         2.100753         0.990595         0.608085
 C         3.622201        -0.728796         0.034097
 O         2.328197        -1.024641        -0.462232
 H        -0.531253         0.598626         0.342340
 H         0.385190         0.830511        -1.171795
 H        -0.366455        -0.800940        -0.617775
 H         1.137253        -0.154015         2.500573
 H         0.590583        -1.729163         1.693017
 H         2.538971        -1.807919         3.271686
 H         2.672954        -2.597220         1.532872
 H         4.764766        -1.094931         1.907546
 H         4.331270         1.292181         0.754551
 H         4.422227        -1.204392        -0.600800
