19
Iteration:   667charge 0 multiplicity 1
 C         0.103719         0.112038        -0.259732
 C         1.489389        -0.191985         0.351780
 C         1.226228        -1.027860         1.675375
 C         2.627305        -1.570252         2.116203
 C         3.743960        -0.643726         1.547879
 C         3.571757         0.617630         0.753699
 O         2.210635         0.915952         0.609558
 C         3.663985        -0.745878         0.024601
 O         2.301459        -1.073960        -0.446869
 H        -0.517044         0.802290         0.378910
 H         0.211744         0.757012        -1.147432
 H        -0.549261        -0.748796        -0.325294
 H         0.883998        -0.318842         2.341188
 H         0.718010        -1.879068         1.526003
 H         2.719608        -1.814698         3.203830
 H         2.762979        -2.557115         1.529813
 H         4.794150        -0.683684         2.032371
 H         4.220825         1.417695         0.943682
 H         4.503194        -1.097688        -0.519193
