19
Iteration:  1656
 C         0.140442         0.059619        -0.290008
 C         1.457541        -0.165861         0.376408
 C         1.278638        -1.045111         1.629762
 C         2.607447        -1.200102         2.429218
 C         3.767738        -0.954540         1.488789
 C         3.612261         0.410869         0.781834
 O         2.272083         0.945417         0.707368
 C         3.499843        -0.816322        -0.105329
 O         2.296158        -0.893383        -0.596178
 H        -0.647005         0.683998         0.220840
 H         0.222531         0.356772        -1.311705
 H        -0.468821        -0.883828        -0.467410
 H         0.466787        -0.611122         2.354264
 H         0.901973        -2.061822         1.289175
 H         2.750571        -0.372836         3.150156
 H         2.824240        -2.100288         2.940168
 H         4.767215        -1.244483         1.545722
 H         4.325725         1.181077         0.549226
 H         4.457690        -1.289394        -0.691067
