19
Iteration:   769charge 0 multiplicity 1
 C         0.102572         0.301350        -0.197569
 C         1.443488        -0.297419         0.355712
 C         1.304053        -1.281286         1.516551
 C         2.625059        -1.166033         2.429009
 C         3.751683        -0.860460         1.501143
 C         3.506310         0.507539         0.820226
 O         2.199822         0.882759         0.689704
 C         3.653850        -0.775856        -0.090456
 O         2.335505        -0.999592        -0.653009
 H        -0.268519         0.562435         0.812941
 H         0.316468         0.966751        -1.042813
 H        -0.546053        -0.417903        -0.753491
 H         0.525465        -1.086941         2.304308
 H         1.103456        -2.159159         1.044605
 H         2.404293        -0.380639         3.244433
 H         2.791561        -2.236860         2.950889
 H         4.719203        -0.934271         1.904990
 H         4.355066         1.266620         0.868673
 H         4.447097        -0.901144        -0.857975
