19
Iteration:  4707charge 0 multiplicity 1
 C         0.236244         0.234211        -0.426392
 C         1.480296        -0.192597         0.404049
 C         1.269497        -0.832974         1.845710
 C         2.663353        -1.339745         2.366898
 C         3.776658        -0.863650         1.498661
 C         3.612217         0.403129         0.604674
 O         2.290009         0.977487         0.436952
 C         3.487801        -0.948943         0.008267
 O         2.135864        -1.115418        -0.340749
 H        -0.173799         1.149101         0.008437
 H         0.657543         0.295248        -1.433714
 H        -0.598051        -0.495044        -0.465011
 H         0.662079        -0.147655         2.543658
 H         0.641611        -1.641916         1.762323
 H         2.833094        -0.944292         3.429743
 H         2.636824        -2.398005         2.396515
 H         4.786100        -0.978957         1.916605
 H         4.413179         1.138430         0.489364
 H         4.069914        -1.339638        -0.725725
