19
Iteration:  2628
 C         0.177936         0.236999        -0.233668
 C         1.430039        -0.286720         0.323514
 C         1.220056        -1.026051         1.702289
 C         2.618406        -1.182701         2.424337
 C         3.788621        -0.898562         1.476104
 C         3.533151         0.424793         0.695310
 O         2.300781         0.900498         0.545918
 C         3.624880        -0.833924        -0.088785
 O         2.243730        -1.091857        -0.492042
 H        -0.338494         0.760985         0.582598
 H         0.514770         1.148456        -0.825034
 H        -0.394491        -0.510352        -0.692933
 H         0.437996        -0.462106         2.113599
 H         0.781819        -2.022604         1.542408
 H         2.708908        -0.428029         3.256582
 H         2.595317        -2.181163         2.995077
 H         4.805392        -0.672507         1.847834
 H         4.308459         1.243606         0.729794
 H         4.210213        -1.085901        -0.922873
