19
Iteration:  1331charge 0 multiplicity 1
 C         0.207574         0.167608        -0.438746
 C         1.388936        -0.253934         0.437487
 C         1.229942        -0.868256         1.860343
 C         2.696349        -1.568804         2.209633
 C         3.820859        -0.716695         1.511507
 C         3.563209         0.538322         0.670610
 O         2.198678         0.961790         0.616817
 C         3.594811        -0.781447         0.014051
 O         2.235949        -1.116043        -0.455765
 H        -0.510061         0.751851         0.164341
 H         0.684691         0.731036        -1.247269
 H        -0.455466        -0.524416        -1.021146
 H         1.057490        -0.113374         2.715795
 H         0.439620        -1.660834         1.797951
 H         2.763952        -1.685451         3.312670
 H         2.676144        -2.571801         1.878932
 H         4.868097        -0.882579         1.843747
 H         4.297856         1.321773         0.556655
 H         4.257831        -1.153406        -0.668153
