19
Iteration:  2932
 C         0.241464         0.055702        -0.453455
 C         1.373590        -0.155396         0.426528
 C         1.282271        -0.731113         1.865771
 C         2.654675        -1.459411         2.166138
 C         3.863944        -0.784930         1.596353
 C         3.570132         0.440075         0.704224
 O         2.228164         1.059339         0.584278
 C         3.545975        -0.850310        -0.087271
 O         2.181903        -1.194994        -0.362982
 H        -0.289220         1.007664        -0.327302
 H         0.549867         0.099405        -1.467060
 H        -0.428649        -0.804400        -0.344147
 H         1.180123         0.119896         2.521380
 H         0.524917        -1.459500         2.059397
 H         2.761846        -1.880709         3.229841
 H         2.462747        -2.333674         1.631718
 H         4.828675        -1.002020         2.041644
 H         4.250965         1.273454         0.441122
 H         4.266814        -1.076585        -0.854092
