19
Iteration:   478charge 0 multiplicity 1
 C         0.163589         0.085236        -0.396279
 C         1.423898        -0.206964         0.401593
 C         1.239249        -1.115485         1.610758
 C         2.702889        -1.391680         2.331491
 C         3.762445        -0.824429         1.461221
 C         3.575612         0.483633         0.794170
 O         2.219462         0.979983         0.770052
 C         3.547091        -0.739918        -0.039478
 O         2.277140        -0.909907        -0.554565
 H        -0.294153         0.939072         0.204202
 H         0.469356         0.415276        -1.389745
 H        -0.438584        -0.839029        -0.284427
 H         0.468616        -0.735883         2.271173
 H         0.982685        -2.108507         1.232220
 H         2.639822        -0.933578         3.379777
 H         2.846586        -2.545943         2.527021
 H         4.834088        -0.917517         1.715877
 H         4.322915         1.204325         0.718185
 H         4.300639        -1.128447        -0.696419
