19
Iteration:   682charge 0 multiplicity 1
 C         0.173104         0.146119        -0.241470
 C         1.452774        -0.351876         0.355304
 C         1.274185        -1.045511         1.683356
 C         2.615500        -1.478496         2.199009
 C         3.742142        -0.695630         1.579465
 C         3.495966         0.533701         0.723110
 O         2.166287         0.983502         0.688315
 C         3.661508        -0.732523        -0.008658
 O         2.369483        -1.012929        -0.581611
 H        -0.299044         0.820172         0.514765
 H         0.271296         0.725834        -1.156642
 H        -0.491503        -0.703017        -0.451377
 H         0.754620        -0.380350         2.450070
 H         0.433972        -1.791556         1.584011
 H         2.648369        -1.529642         3.313155
 H         2.806844        -2.583159         1.918021
 H         4.682196        -0.885672         1.948636
 H         4.293295         1.359946         0.544616
 H         4.405372        -1.120865        -0.769686
