19
Iteration:  4830charge 0 multiplicity 1
 C         0.167815         0.199850        -0.358595
 C         1.428259        -0.179938         0.434070
 C         1.165892        -0.793765         1.780097
 C         2.657523        -1.122395         2.409667
 C         3.817015        -0.863744         1.442796
 C         3.572760         0.306551         0.529261
 O         2.326280         0.940566         0.697746
 C         3.566870        -1.039568        -0.049982
 O         2.234368        -1.131669        -0.478986
 H        -0.508330         0.914546         0.147331
 H         0.466005         0.738924        -1.320860
 H        -0.308964        -0.730380        -0.718398
 H         0.460788        -0.136999         2.288103
 H         0.528960        -1.725381         1.599372
 H         2.774579        -0.594817         3.360586
 H         2.744598        -2.196544         2.540652
 H         4.806232        -0.833260         1.929063
 H         4.412360         0.953541         0.479896
 H         4.199551        -1.475046        -0.963886
