19
Iteration:  1061
 C         0.109500         0.045466        -0.342550
 C         1.464643        -0.213091         0.397260
 C         1.246355        -0.992668         1.745567
 C         2.605415        -1.415455         2.247817
 C         3.737946        -0.889729         1.430859
 C         3.581336         0.502960         0.751505
 O         2.240270         1.029821         0.677684
 C         3.671452        -0.711310        -0.086232
 O         2.322022        -0.987291        -0.429915
 H        -0.550399         0.711573         0.190150
 H         0.169444         0.639211        -1.270232
 H        -0.365181        -0.948770        -0.477205
 H         0.474307        -0.566965         2.405987
 H         0.678215        -1.951825         1.391957
 H         2.738333        -0.899702         3.269639
 H         2.441466        -2.588054         2.441582
 H         4.784109        -1.329284         1.579315
 H         4.280349         1.297457         0.737838
 H         4.416312        -1.002973        -0.874219
