19
Iteration:  1371charge 0 multiplicity 1
 C         0.138363         0.185287        -0.316293
 C         1.454420        -0.233175         0.381555
 C         1.212917        -0.965457         1.754648
 C         2.603572        -1.454905         2.259634
 C         3.848041        -0.766776         1.482295
 C         3.571417         0.501380         0.696025
 O         2.233201         0.968557         0.605339
 C         3.589127        -0.794115        -0.036038
 O         2.289925        -1.119127        -0.428539
 H        -0.475138         0.815623         0.329183
 H         0.537233         0.740683        -1.211063
 H        -0.487934        -0.643287        -0.549047
 H         0.703934        -0.185644         2.311180
 H         0.509419        -1.758475         1.577204
 H         2.709365        -1.001675         3.275803
 H         2.674860        -2.600413         2.050849
 H         4.929646        -0.987021         1.912088
 H         4.219591         1.366180         0.688232
 H         4.353235        -1.060717        -0.787766
