19
Iteration:  2877
 C         0.152349         0.198675        -0.253814
 C         1.453062        -0.258384         0.331356
 C         1.321178        -0.932880         1.685167
 C         2.657621        -1.277223         2.434155
 C         3.694849        -0.789614         1.574505
 C         3.546198         0.431605         0.682608
 O         2.290150         0.893493         0.555564
 C         3.554644        -0.942108        -0.041284
 O         2.243579        -1.048898        -0.577254
 H        -0.185693         0.969755         0.453570
 H         0.406481         0.599727        -1.247242
 H        -0.547409        -0.607562        -0.353110
 H         0.778262        -0.180646         2.284373
 H         0.686753        -1.806893         1.587985
 H         2.761934        -0.658428         3.405570
 H         2.658166        -2.298762         2.654342
 H         4.770012        -0.804692         1.874350
 H         4.222981         1.261702         0.583911
 H         4.406710        -1.209673        -0.770785
