19
Iteration:   422
 C         0.166587         0.118618        -0.260052
 C         1.445475        -0.225082         0.411420
 C         1.306949        -0.933846         1.711807
 C         2.583161        -1.615568         2.064914
 C         3.785561        -0.813023         1.514245
 C         3.513259         0.576658         0.804154
 O         2.144603         0.996521         0.538682
 C         3.742705        -0.659983        -0.017150
 O         2.302851        -1.092037        -0.356037
 H        -0.578384         0.566343         0.505436
 H         0.283803         0.805957        -1.117345
 H        -0.275604        -0.770766        -0.733246
 H         0.950972        -0.228387         2.458893
 H         0.525488        -1.695772         1.640697
 H         2.579432        -1.726852         3.217412
 H         2.563087        -2.722833         1.690356
 H         4.702569        -0.806092         1.862809
 H         4.220310         1.448567         0.816509
 H         4.404179        -0.767252        -0.927169
