19
Iteration:  4768charge 0 multiplicity 1
 C         0.057187         0.256055        -0.275012
 C         1.442625        -0.219719         0.331277
 C         1.213847        -0.769549         1.791245
 C         2.605110        -1.223412         2.422516
 C         3.746838        -0.818410         1.521082
 C         3.693406         0.390672         0.594608
 O         2.340491         0.892891         0.543569
 C         3.537366        -0.951739        -0.006521
 O         2.283727        -1.200050        -0.545977
 H        -0.622783         0.863998         0.392861
 H         0.255148         0.868329        -1.135778
 H        -0.488610        -0.666178        -0.589055
 H         0.992459         0.144160         2.310827
 H         0.316737        -1.516207         1.833895
 H         2.786679        -0.905322         3.440082
 H         2.637175        -2.409778         2.471187
 H         4.762809        -1.113565         1.765131
 H         4.478951         1.116163         0.583064
 H         4.398507        -1.494566        -0.506140
