19
Iteration:  1821charge 0 multiplicity 1
 C         0.112305         0.161831        -0.300918
 C         1.329233        -0.275421         0.389805
 C         1.308423        -0.899186         1.784477
 C         2.628771        -1.638718         2.106654
 C         3.701866        -0.675460         1.545334
 C         3.518763         0.537482         0.626880
 O         2.286598         1.044395         0.568435
 C         3.734512        -0.775807         0.081576
 O         2.302405        -1.144907        -0.400163
 H        -0.495001         0.733018         0.416961
 H         0.461975         0.763580        -1.252797
 H        -0.469925        -0.648421        -0.735123
 H         1.087443        -0.112135         2.448573
 H         0.392975        -1.447396         1.859755
 H         2.629848        -1.744391         3.222942
 H         2.657047        -2.571116         1.617581
 H         4.696666        -0.581699         2.087642
 H         4.377754         1.284719         0.472576
 H         4.290491        -1.338383        -0.548864
