19
Iteration:  4763
 C         0.037467         0.221637        -0.271951
 C         1.438120        -0.243851         0.336005
 C         1.202331        -0.757570         1.740283
 C         2.595779        -1.231316         2.412416
 C         3.781787        -0.826586         1.504118
 C         3.699748         0.381486         0.610597
 O         2.342703         0.897261         0.559197
 C         3.554438        -0.953709        -0.000159
 O         2.254420        -1.174198        -0.521174
 H        -0.431596         0.894182         0.420518
 H         0.387713         0.844957        -1.157101
 H        -0.429959        -0.698970        -0.576581
 H         0.913671         0.204591         2.265556
 H         0.388136        -1.394487         1.939578
 H         2.712256        -0.874849         3.478753
 H         2.548331        -2.297307         2.415602
 H         4.844020        -1.111876         1.625117
 H         4.485232         1.172844         0.530333
 H         4.370980        -1.452269        -0.446872
