19
Iteration:  1263
 C         0.141551         0.124182        -0.242095
 C         1.435829        -0.235204         0.355020
 C         1.262756        -1.032648         1.657470
 C         2.650398        -1.310115         2.357021
 C         3.756681        -0.828165         1.505310
 C         3.562566         0.450933         0.763985
 O         2.217170         0.946461         0.648648
 C         3.598029        -0.887806        -0.038220
 O         2.291729        -0.929032        -0.627206
 H        -0.239638         0.693096         0.606823
 H         0.344282         0.726105        -1.176229
 H        -0.492807        -0.728581        -0.492225
 H         0.505129        -0.350766         2.201641
 H         0.723589        -1.900995         1.376864
 H         2.665480        -0.913055         3.378605
 H         2.877281        -2.314293         2.662085
 H         4.873548        -0.970868         1.829267
 H         4.263402         1.294753         0.710375
 H         4.499501        -1.240143        -0.663007
