19
Iteration:  1261
 C         0.155494         0.141311        -0.245414
 C         1.436893        -0.238238         0.348588
 C         1.256701        -1.052695         1.660370
 C         2.650218        -1.297764         2.363176
 C         3.766298        -0.808937         1.502500
 C         3.552043         0.457212         0.755312
 O         2.221797         0.953270         0.663367
 C         3.609628        -0.894203        -0.026495
 O         2.274264        -0.941180        -0.636347
 H        -0.288523         0.675187         0.591954
 H         0.377941         0.678379        -1.151223
 H        -0.502436        -0.637004        -0.502610
 H         0.566969        -0.407950         2.165842
 H         0.774535        -1.948830         1.357514
 H         2.724493        -0.911312         3.383339
 H         2.845559        -2.401863         2.641940
 H         4.792360        -0.990828         1.846644
 H         4.219435         1.313010         0.653737
 H         4.481234        -1.292729        -0.636076
