19
Iteration:  3518charge 0 multiplicity 1
 C         0.186417         0.292973        -0.294939
 C         1.475913        -0.231908         0.364113
 C         1.299466        -1.193502         1.699977
 C         2.625085        -1.024724         2.462350
 C         3.720991        -0.804981         1.476788
 C         3.592852         0.379454         0.618575
 O         2.307690         0.979490         0.551963
 C         3.484557        -0.977182        -0.008534
 O         2.193513        -1.102576        -0.454224
 H        -0.144724         1.009121         0.446820
 H         0.579656         0.823265        -1.253019
 H        -0.322469        -0.655111        -0.533478
 H         0.509778        -0.722729         2.232350
 H         1.024110        -2.308156         1.361290
 H         2.435151        -0.045663         2.964742
 H         2.811205        -1.817385         3.214437
 H         4.786787        -1.135279         1.637956
 H         4.547571         0.978902         0.332458
 H         4.183283        -1.495337        -0.701890
