19
Iteration:    97
 C         0.226789         0.300494        -0.264593
 C         1.447829        -0.253562         0.338950
 C         1.173297        -1.157836         1.591784
 C         2.637931        -1.237805         2.282319
 C         3.867571        -0.778797         1.422343
 C         3.530309         0.548867         0.722819
 O         2.171585         0.879621         0.799816
 C         3.567394        -0.816090        -0.033150
 O         2.290158        -1.152023        -0.516992
 H        -0.003653         0.864707         0.583684
 H         0.467352         0.834983        -1.163441
 H        -0.413738        -0.479969        -0.481497
 H         0.434070        -0.753060         2.276620
 H         0.874015        -2.156505         1.187168
 H         2.692637        -0.615744         3.216466
 H         2.833142        -2.247591         2.475207
 H         4.789237        -0.979731         1.951010
 H         4.235465         1.338672         0.529420
 H         4.343661        -0.771827        -0.738234
