19
Iteration:  1057charge 0 multiplicity 1
 C         0.092351         0.045724        -0.298454
 C         1.472517        -0.200369         0.396559
 C         1.265440        -1.014274         1.708013
 C         2.590922        -1.382825         2.277864
 C         3.734516        -0.880367         1.431386
 C         3.615920         0.479745         0.768225
 O         2.246621         1.010668         0.676874
 C         3.636846        -0.718808        -0.062446
 O         2.333428        -0.988966        -0.489958
 H        -0.602930         0.725730         0.218748
 H         0.089899         0.556782        -1.282708
 H        -0.390150        -0.901356        -0.511475
 H         0.509059        -0.560570         2.293247
 H         0.729159        -1.838461         1.418112
 H         2.647235        -1.039375         3.321431
 H         2.571508        -2.462565         2.422468
 H         4.695936        -1.229647         1.709871
 H         4.289663         1.342078         0.647318
 H         4.342616        -0.932967        -0.792823
