19
Iteration:  1000charge 0 multiplicity 1
 C         0.194511         0.289668        -0.252292
 C         1.441359        -0.233171         0.426987
 C         1.211863        -1.260881         1.591483
 C         2.598817        -1.269996         2.364751
 C         3.816961        -0.817145         1.428613
 C         3.543194         0.491600         0.779872
 O         2.210248         0.920228         0.683450
 C         3.615938        -0.718939        -0.095543
 O         2.287778        -1.081887        -0.545557
 H        -0.423200         0.909446         0.454518
 H         0.481730         0.730902        -1.214836
 H        -0.475324        -0.586106        -0.427298
 H         0.380676        -0.989097         2.295139
 H         1.233332        -2.117097         1.017486
 H         2.504051        -0.437627         3.058735
 H         2.877944        -2.166856         2.900541
 H         4.837090        -1.008291         1.797285
 H         4.157944         1.420669         0.918902
 H         4.441341        -1.000678        -0.848923
