19
Iteration:  2919
 C         0.146590         0.053013        -0.511863
 C         1.454414        -0.168084         0.434749
 C         1.312305        -0.746352         1.806546
 C         2.595186        -1.488094         2.152283
 C         3.801217        -0.781187         1.434244
 C         3.566948         0.457673         0.662366
 O         2.270138         1.022460         0.666581
 C         3.577191        -0.828269        -0.046517
 O         2.205266        -1.152954        -0.227150
 H        -0.408631         0.970049        -0.299564
 H         0.627018        -0.059380        -1.561115
 H        -0.599356        -0.736061        -0.361226
 H         1.053892         0.034270         2.547498
 H         0.487533        -1.338977         1.798232
 H         2.683775        -1.318229         3.267732
 H         2.704301        -2.552374         1.896723
 H         4.855120        -0.766677         1.837525
 H         4.428805         1.072259         0.694905
 H         4.170341        -1.253595        -0.937032
