19
Iteration:  2713charge 0 multiplicity 1
 C         0.201236         0.112015        -0.340961
 C         1.508146        -0.264860         0.386104
 C         1.304227        -0.717104         1.851307
 C         2.575898        -1.565615         2.241296
 C         3.723865        -0.775927         1.543971
 C         3.511988         0.455189         0.701023
 O         2.201080         0.985952         0.497267
 C         3.616370        -0.801940        -0.090719
 O         2.279674        -1.135578        -0.387819
 H        -0.142294         0.902870         0.242918
 H         0.360900         0.460848        -1.367323
 H        -0.549305        -0.594416        -0.461844
 H         1.390473         0.251861         2.419976
 H         0.393960        -1.351758         2.098339
 H         2.719662        -1.541138         3.357486
 H         2.561719        -2.527485         1.873488
 H         4.770202        -0.891361         1.919823
 H         4.227570         1.314879         0.605401
 H         4.329426        -0.990773        -0.858959
