19
Iteration:  3495
 C         0.131843         0.266301        -0.291891
 C         1.412690        -0.235123         0.392507
 C         1.292925        -1.015536         1.685032
 C         2.565597        -1.016169         2.497982
 C         3.762221        -0.785756         1.500297
 C         3.643935         0.358895         0.604987
 O         2.311467         0.883109         0.637429
 C         3.590053        -1.012198        -0.068070
 O         2.168931        -1.077326        -0.529555
 H        -0.177455         1.211374         0.191343
 H         0.490357         0.426199        -1.358022
 H        -0.480120        -0.666094        -0.317889
 H         0.397415        -0.945651         2.274660
 H         1.363308        -2.157130         1.297089
 H         2.746533        -0.151943         3.146744
 H         2.598472        -1.968152         3.035142
 H         4.799358        -1.184886         1.645677
 H         4.406228         1.110738         0.226402
 H         4.429896        -1.347052        -0.630304
