19
Iteration:  2515
 C         0.183279         0.189470        -0.332535
 C         1.459469        -0.230953         0.393862
 C         1.238879        -0.906286         1.794392
 C         2.605552        -1.399102         2.295045
 C         3.742432        -0.727316         1.509249
 C         3.607080         0.519587         0.626254
 O         2.268345         0.950569         0.539496
 C         3.624862        -0.883104         0.010302
 O         2.216026        -1.099960        -0.448696
 H        -0.353674         0.926900         0.276701
 H         0.338093         0.663335        -1.236535
 H        -0.548645        -0.653268        -0.354479
 H         0.529051        -0.417477         2.537062
 H         0.756723        -1.875984         1.540382
 H         2.918735        -1.311928         3.431580
 H         2.732118        -2.427655         2.091705
 H         4.699955        -1.117325         1.919543
 H         4.311106         1.304444         0.522935
 H         4.385212        -1.497619        -0.657769
