19
Iteration:   494charge 0 multiplicity 1
 C         0.128132         0.109762        -0.332622
 C         1.425208        -0.176000         0.462602
 C         1.286342        -1.261711         1.649812
 C         2.558139        -1.266592         2.317064
 C         3.752793        -0.922038         1.406423
 C         3.599333         0.533523         0.795588
 O         2.243043         1.012283         0.783605
 C         3.662958        -0.746875        -0.109415
 O         2.292758        -0.939075        -0.561430
 H        -0.566179         0.871280        -0.106797
 H         0.368140         0.247125        -1.408442
 H        -0.445915        -0.792265        -0.528110
 H         0.430238        -1.030013         2.340099
 H         0.816215        -2.118801         1.136273
 H         2.782435        -0.610289         3.151281
 H         2.708191        -2.184820         2.884318
 H         4.771681        -1.354748         1.799770
 H         4.292596         1.431958         0.957558
 H         4.374598        -0.917194        -0.963781
