19
Iteration:  4046
 C         0.096667         0.088588        -0.327313
 C         1.427950        -0.204159         0.335175
 C         1.190822        -0.689326         1.790863
 C         2.623147        -1.179844         2.502970
 C         3.743928        -0.899823         1.482194
 C         3.698212         0.340002         0.637141
 O         2.378698         0.921706         0.587649
 C         3.538813        -1.006982        -0.094759
 O         2.229663        -1.059374        -0.520429
 H        -0.650268         0.430426         0.325206
 H         0.167150         0.661887        -1.311614
 H        -0.350404        -0.859181        -0.523908
 H         0.712770         0.208629         2.203573
 H         0.502338        -1.537362         1.819651
 H         2.826626        -0.470981         3.320667
 H         2.750613        -2.259136         2.766254
 H         4.736154        -1.186683         1.842553
 H         4.445468         1.158839         0.462483
 H         4.352349        -1.382580        -0.813393
