19
Iteration:  3910charge 0 multiplicity 1
 C         0.136801         0.055686        -0.267292
 C         1.487504        -0.143317         0.416405
 C         1.287627        -0.755584         1.824217
 C         2.558054        -1.251702         2.550017
 C         3.709250        -0.887973         1.506426
 C         3.643997         0.327621         0.600454
 O         2.384745         1.019227         0.464897
 C         3.500311        -1.023463        -0.037714
 O         2.225087        -1.047291        -0.611829
 H        -0.563403         0.617623         0.414629
 H         0.359217         0.621797        -1.138931
 H        -0.392462        -0.833891        -0.699160
 H         0.813615         0.131413         2.337592
 H         0.632445        -1.670183         1.669884
 H         2.651995        -0.892188         3.570839
 H         2.522681        -2.380233         2.497804
 H         4.732905        -1.093365         1.795321
 H         4.276080         1.259535         0.561055
 H         4.388670        -1.220834        -0.690800
