19
Iteration:  4057
 C         0.148028         0.142706        -0.390679
 C         1.440169        -0.152698         0.365477
 C         1.254398        -0.675342         1.807590
 C         2.689534        -1.231564         2.487431
 C         3.823780        -0.873853         1.444356
 C         3.549430         0.420297         0.679655
 O         2.302283         0.907894         0.565535
 C         3.525604        -1.029279        -0.029480
 O         2.205918        -1.167179        -0.538930
 H        -0.503265         0.699411         0.205275
 H         0.360518         0.882006        -1.252881
 H        -0.161523        -0.772510        -0.814789
 H         0.843653         0.218640         2.314568
 H         0.487723        -1.450724         1.953583
 H         2.804773        -0.813630         3.504219
 H         2.621336        -2.318728         2.799000
 H         4.870292        -1.030764         1.735637
 H         4.357880         1.203008         0.600220
 H         4.073779        -1.731366        -0.762401
