19
Iteration:   352charge 0 multiplicity 1
 C         0.138465         0.156650        -0.308163
 C         1.457033        -0.239590         0.335306
 C         1.278935        -1.031875         1.661477
 C         2.632276        -1.369645         2.267286
 C         3.803864        -0.882146         1.383363
 C         3.549802         0.524104         0.853980
 O         2.160790         0.945358         0.771826
 C         3.615574        -0.698721        -0.106795
 O         2.306318        -1.055742        -0.537523
 H        -0.462740         0.673307         0.444174
 H         0.250899         0.806205        -1.224786
 H        -0.348669        -0.814719        -0.649711
 H         0.501397        -0.506485         2.330465
 H         0.825210        -2.035640         1.352106
 H         2.891182        -0.741042         3.278487
 H         2.686770        -2.449506         2.660746
 H         4.873714        -1.066450         1.934202
 H         4.255576         1.294613         0.940096
 H         4.397845        -0.952460        -0.768770
