19
Iteration:  3657
 C         0.151929         0.082343        -0.275568
 C         1.490001        -0.188987         0.367336
 C         1.298418        -0.817259         1.806658
 C         2.566562        -1.370711         2.324875
 C         3.712617        -0.747753         1.557002
 C         3.579113         0.436812         0.681684
 O         2.350036         1.041911         0.435438
 C         3.545056        -0.896873        -0.078115
 O         2.222364        -1.183063        -0.397881
 H        -0.307952         0.951494         0.133969
 H         0.389107         0.420826        -1.312155
 H        -0.657286        -0.587663        -0.399724
 H         1.048348         0.013126         2.465515
 H         0.548641        -1.548953         1.766223
 H         2.826245        -1.263337         3.397101
 H         2.565103        -2.459369         2.089824
 H         4.672492        -1.147179         2.011871
 H         4.448413         1.219489         0.530799
 H         4.242671        -1.364530        -0.807474
