19
Iteration:   781charge 0 multiplicity 1
 C         0.122765         0.307530        -0.169208
 C         1.446610        -0.266198         0.286236
 C         1.370165        -1.274652         1.558802
 C         2.615953        -1.279673         2.415221
 C         3.786356        -0.901594         1.512926
 C         3.487681         0.438231         0.817126
 O         2.132721         0.960252         0.571736
 C         3.618311        -0.715652        -0.050766
 O         2.372384        -1.015035        -0.597203
 H        -0.384223         0.870012         0.629983
 H         0.292036         1.202857        -0.796975
 H        -0.622319        -0.474909        -0.464427
 H         0.410936        -0.962642         2.070574
 H         1.260202        -2.262017         1.181369
 H         2.563305        -0.386994         3.147435
 H         2.736090        -2.238157         3.083634
 H         4.819061        -1.006159         1.884708
 H         4.089318         1.313172         0.962482
 H         4.438566        -0.933164        -0.661149
