19
Iteration:  2834charge 0 multiplicity 1
 C         0.201910         0.242070        -0.192681
 C         1.482402        -0.198673         0.385604
 C         1.299271        -1.171517         1.609313
 C         2.538158        -1.012436         2.416133
 C         3.724692        -0.841833         1.455631
 C         3.613934         0.389180         0.622657
 O         2.324249         0.879988         0.634624
 C         3.586566        -0.894343        -0.089365
 O         2.161299        -1.062336        -0.472553
 H        -0.509041         0.599901         0.522572
 H         0.206854         0.980203        -1.012570
 H        -0.049629        -0.654081        -0.690537
 H         0.380716        -0.829320         2.198357
 H         1.172640        -2.184288         1.055816
 H         2.367318        -0.019917         2.998289
 H         2.803800        -1.753019         3.100571
 H         4.703297        -1.050886         2.020408
 H         4.441856         1.046126         0.623931
 H         4.406396        -1.424154        -0.813212
