19
Iteration:   972charge 0 multiplicity 1
 C         0.193943         0.174995        -0.423052
 C         1.400978        -0.278049         0.397972
 C         1.186090        -1.137732         1.623391
 C         2.661892        -1.246089         2.324564
 C         3.847768        -0.848811         1.416941
 C         3.543009         0.503624         0.665851
 O         2.226964         0.898885         0.929514
 C         3.559505        -0.751705        -0.030276
 O         2.272427        -0.977036        -0.536196
 H        -0.503300         0.756706         0.163412
 H         0.594038         0.733889        -1.270369
 H        -0.334561        -0.734800        -0.664265
 H         0.480675        -0.731956         2.345876
 H         1.069449        -2.180239         1.162408
 H         2.658435        -0.463081         3.118285
 H         2.952230        -2.298409         2.738782
 H         4.844331        -1.199523         1.560616
 H         4.229266         1.368843         0.592089
 H         4.354377        -1.048346        -0.650504
