19
Iteration:  1476
 C         0.199701         0.326578        -0.305680
 C         1.366686        -0.309431         0.391051
 C         1.310403        -1.194098         1.606713
 C         2.631632        -1.217849         2.431018
 C         3.798257        -0.721160         1.422917
 C         3.569070         0.469923         0.627848
 O         2.225544         0.916956         0.697003
 C         3.578345        -0.867573        -0.005272
 O         2.246953        -1.067085        -0.477653
 H        -0.364701         1.060746         0.346620
 H         0.609064         1.001862        -1.121865
 H        -0.441046        -0.375914        -0.851368
 H         0.545039        -0.963898         2.316599
 H         1.103582        -2.258710         1.232046
 H         2.606570        -0.834100         3.449239
 H         2.754085        -2.240409         2.665582
 H         4.762224        -1.036447         1.791451
 H         4.171456         1.351679         0.545553
 H         4.299760        -1.195151        -0.818318
