19
Iteration:  2485charge 0 multiplicity 1
 C         0.229870         0.152639        -0.425578
 C         1.418782        -0.164694         0.398019
 C         1.301489        -0.766998         1.857099
 C         2.624394        -1.515504         2.207804
 C         3.806792        -0.838746         1.504836
 C         3.520619         0.532022         0.725123
 O         2.222389         0.979553         0.526495
 C         3.578969        -0.799389        -0.030563
 O         2.209387        -1.207577        -0.344236
 H        -0.563658         0.693264         0.083966
 H         0.402321         0.774282        -1.302377
 H        -0.065960        -0.885228        -0.697056
 H         1.082471        -0.026080         2.554154
 H         0.475573        -1.432653         1.861119
 H         2.918439        -1.338273         3.225897
 H         2.645910        -2.607502         2.070979
 H         4.814418        -1.127481         1.931044
 H         4.253532         1.264655         0.440370
 H         4.409768        -0.914691        -0.835814
