19
Iteration:  4976charge 0 multiplicity 1
 C         0.203627         0.134305        -0.405843
 C         1.479980        -0.167027         0.500413
 C         1.203635        -0.819972         1.846981
 C         2.556234        -1.224965         2.338810
 C         3.786295        -0.783319         1.447663
 C         3.676071         0.368644         0.488045
 O         2.335460         0.927865         0.590214
 C         3.530864        -0.996339        -0.065201
 O         2.201697        -1.072795        -0.353848
 H        -0.551340         0.717721         0.160151
 H         0.319669         0.813183        -1.298138
 H        -0.260980        -0.835843        -0.647641
 H         0.614284        -0.255555         2.551116
 H         0.479337        -1.745328         1.641901
 H         2.552290        -0.815964         3.360218
 H         2.647187        -2.361485         2.446985
 H         4.731407        -1.146150         1.948801
 H         4.384293         1.117589         0.060021
 H         4.310715        -1.358191        -0.726732
