19
Iteration:   313charge 0 multiplicity 1
 C         0.223740         0.277842        -0.219311
 C         1.456745        -0.300981         0.377875
 C         1.353038        -1.358867         1.519848
 C         2.630947        -1.235941         2.420428
 C         3.720966        -0.789427         1.509656
 C         3.538861         0.541402         0.669971
 O         2.206277         0.951662         0.718317
 C         3.548538        -0.799346         0.031923
 O         2.234844        -0.937553        -0.636740
 H         0.079441         1.063107         0.583717
 H         0.638538         0.731532        -1.160411
 H        -0.554406        -0.467959        -0.186685
 H         0.474586        -1.518077         2.084965
 H         1.393279        -2.302434         1.000799
 H         2.425621        -0.653799         3.226260
 H         2.833131        -2.162669         2.924686
 H         4.648387        -0.990914         1.828456
 H         4.212454         1.456776         0.387050
 H         4.169731        -1.445140        -0.636012
