19
Iteration:  2658
 C         0.110905         0.121183        -0.328126
 C         1.413725        -0.153846         0.396885
 C         1.308424        -0.897070         1.739886
 C         2.622190        -1.371570         2.319336
 C         3.785806        -0.856507         1.551431
 C         3.614421         0.532642         0.620145
 O         2.309848         0.976164         0.621125
 C         3.556531        -0.905249         0.005509
 O         2.227723        -1.098472        -0.517042
 H        -0.699684         0.448097         0.201534
 H         0.423260         0.746104        -1.154588
 H        -0.209332        -0.779199        -0.710186
 H         0.733913        -0.097673         2.322205
 H         0.542887        -1.720753         1.696297
 H         2.626726        -0.976942         3.388130
 H         2.658066        -2.402590         2.416128
 H         4.851421        -0.920480         1.752099
 H         4.363569         1.372469         0.416161
 H         4.223831        -1.400726        -0.568744
