19
Iteration:   799
 C         0.100821         0.206109        -0.205766
 C         1.458879        -0.259510         0.366141
 C         1.299407        -1.186730         1.547297
 C         2.628034        -1.336016         2.364191
 C         3.736439        -0.801239         1.506241
 C         3.546808         0.570005         0.775293
 O         2.212434         0.924309         0.624738
 C         3.616617        -0.814502        -0.001834
 O         2.324428        -0.952660        -0.577278
 H        -0.311802         0.857000         0.604007
 H         0.332041         0.823546        -1.084071
 H        -0.497475        -0.684206        -0.396162
 H         0.454599        -1.008974         2.195822
 H         0.977304        -2.120482         1.049287
 H         2.517198        -0.863424         3.320079
 H         2.784734        -2.385802         2.565408
 H         4.709181        -0.990262         1.854277
 H         4.362998         1.372744         0.659757
 H         4.495026        -1.133327        -0.664648
