19
Iteration:   826charge 0 multiplicity 1
 C         0.136461         0.034583        -0.384680
 C         1.447596        -0.240812         0.390691
 C         1.232555        -1.011844         1.650378
 C         2.635750        -1.430429         2.270308
 C         3.772713        -0.796169         1.466713
 C         3.603124         0.589616         0.735405
 O         2.241101         0.940441         0.828482
 C         3.613709        -0.761374        -0.049909
 O         2.257219        -0.949895        -0.529531
 H        -0.457742         0.835731         0.063365
 H         0.477904         0.432291        -1.360109
 H        -0.321306        -0.980837        -0.326500
 H         0.611526        -0.515072         2.422075
 H         0.589162        -1.827270         1.362535
 H         2.661285        -1.132520         3.382681
 H         2.647990        -2.592229         2.234215
 H         4.835224        -0.997580         1.868620
 H         4.379054         1.219684         0.483151
 H         4.358242        -0.940350        -0.769292
