19
Iteration:  1492charge 0 multiplicity 1
 C         0.164029         0.254114        -0.328618
 C         1.460645        -0.208522         0.406302
 C         1.253754        -1.127148         1.701274
 C         2.693844        -1.293042         2.352052
 C         3.765227        -0.861290         1.474876
 C         3.571741         0.475790         0.744955
 O         2.195193         0.957011         0.631901
 C         3.578916        -0.800879        -0.076473
 O         2.258923        -1.061944        -0.513900
 H        -0.452839         0.652269         0.433100
 H         0.458888         0.805376        -1.206593
 H        -0.397451        -0.631185        -0.688480
 H         0.469799        -0.635095         2.366111
 H         0.866497        -2.062122         1.244953
 H         2.710646        -0.487148         3.111938
 H         2.820292        -2.343258         2.833618
 H         4.842075        -0.970311         1.855403
 H         4.336646         1.288252         0.726543
 H         4.277398        -1.260115        -0.772711
