19
Iteration:  2110
 C         0.173006         0.144423        -0.409994
 C         1.466731        -0.292824         0.365844
 C         1.295309        -1.077354         1.683133
 C         2.614562        -1.169197         2.487899
 C         3.719667        -0.861817         1.359892
 C         3.564524         0.436266         0.737179
 O         2.283299         0.908333         0.816582
 C         3.522528        -0.884602        -0.055458
 O         2.236128        -0.914652        -0.597441
 H        -0.323183         0.889974         0.225421
 H         0.431755         0.596862        -1.421626
 H        -0.256293        -0.857703        -0.636500
 H         0.571968        -0.543011         2.353700
 H         0.877237        -2.005482         1.488192
 H         2.775093        -0.371185         3.208556
 H         2.852325        -2.168045         2.999228
 H         4.800584        -1.146485         1.505848
 H         4.365658         1.130997         0.565712
 H         4.370985        -1.017149        -0.728490
