19
Iteration:  4718
 C         0.212348         0.191807        -0.422224
 C         1.401429        -0.144363         0.487002
 C         1.266981        -0.820983         1.838991
 C         2.583994        -1.369339         2.480582
 C         3.807929        -0.863145         1.457254
 C         3.626261         0.503072         0.647023
 O         2.342821         1.000240         0.437296
 C         3.532743        -0.983906        -0.111574
 O         2.144696        -1.160079        -0.376720
 H        -0.260156         1.162846        -0.265271
 H         0.633431         0.381984        -1.428153
 H        -0.467460        -0.672944        -0.442200
 H         0.808152        -0.130253         2.647217
 H         0.650282        -1.541578         1.518421
 H         2.804103        -1.059555         3.571285
 H         2.592890        -2.419356         2.503451
 H         4.831890        -1.174503         1.746153
 H         4.398079         1.283554         0.509990
 H         4.083467        -1.485216        -0.769084
