19
Iteration:  4350
 C         0.224040         0.231062        -0.339165
 C         1.422596        -0.206967         0.386456
 C         1.181374        -0.793063         1.776226
 C         2.559855        -1.232727         2.331269
 C         3.795046        -0.805896         1.466614
 C         3.627122         0.407427         0.490935
 O         2.323184         0.944509         0.528580
 C         3.596594        -0.968109        -0.009819
 O         2.223263        -1.215636        -0.262709
 H        -0.242431         1.104703         0.244023
 H         0.397496         0.641308        -1.337783
 H        -0.600151        -0.528751        -0.468272
 H         0.665036        -0.210558         2.440049
 H         0.541153        -1.779210         1.730931
 H         2.628645        -0.824136         3.333685
 H         2.707820        -2.389877         2.313628
 H         4.698168        -0.993045         2.068344
 H         4.445134         1.072211         0.170126
 H         4.196979        -1.394188        -0.890217
