19
Iteration:   520
 C         0.171509         0.171097        -0.236355
 C         1.453225        -0.323356         0.303338
 C         1.290286        -1.194491         1.554860
 C         2.576986        -1.135031         2.354768
 C         3.828949        -0.828153         1.453377
 C         3.548867         0.477859         0.825152
 O         2.202023         0.870170         0.862049
 C         3.613852        -0.791874        -0.046124
 O         2.271680        -0.935666        -0.686551
 H        -0.293329         0.916149         0.471840
 H         0.334703         0.726696        -1.160565
 H        -0.549003        -0.593187        -0.531189
 H         0.356885        -0.995199         2.133438
 H         1.015853        -2.151824         1.051996
 H         2.640052        -0.476999         3.198844
 H         2.724550        -2.047264         2.893143
 H         4.788406        -1.061829         1.669504
 H         4.213634         1.276131         0.697979
 H         4.442678        -1.111636        -0.655034
