19
Iteration:  4422charge 0 multiplicity 1
 C         0.192714         0.141834        -0.280423
 C         1.462375        -0.205470         0.357469
 C         1.320105        -0.690363         1.810232
 C         2.561726        -1.254200         2.291256
 C         3.702622        -0.824379         1.464484
 C         3.614051         0.398998         0.660664
 O         2.327084         0.918510         0.488987
 C         3.562997        -0.961445        -0.034932
 O         2.213745        -1.196279        -0.387114
 H        -0.458433         0.623937         0.398950
 H         0.250612         0.767081        -1.207799
 H        -0.340382        -0.731333        -0.586835
 H         0.819543         0.289123         2.339153
 H         0.449815        -1.285427         1.773626
 H         2.747159        -0.914869         3.348569
 H         2.556519        -2.312189         2.272156
 H         4.647527        -1.042643         1.924894
 H         4.408739         1.155865         0.549736
 H         4.327179        -1.426887        -0.585597
