19
Iteration:  2998charge 0 multiplicity 1
 C         0.055074         0.113818        -0.284438
 C         1.454352        -0.173595         0.415726
 C         1.246304        -0.936404         1.711667
 C         2.598725        -1.207796         2.379581
 C         3.774314        -0.808736         1.503385
 C         3.654975         0.450424         0.665431
 O         2.314639         0.928073         0.522673
 C         3.601319        -0.962370        -0.000491
 O         2.239543        -1.029732        -0.499411
 H        -0.653278         0.509799         0.477828
 H         0.182537         0.890051        -0.967000
 H        -0.153649        -0.867763        -0.747033
 H         0.498227        -0.334411         2.216769
 H         0.768999        -1.811028         1.348700
 H         2.712477        -0.855199         3.476195
 H         2.803316        -2.259945         2.457873
 H         4.722826        -1.145446         1.887148
 H         4.470422         1.228441         0.532651
 H         4.220147        -1.482593        -0.663536
