19
Iteration:  4143
 C         0.159988         0.107605        -0.320330
 C         1.460647        -0.219358         0.340055
 C         1.304923        -0.683038         1.879269
 C         2.635383        -1.278896         2.501166
 C         3.685298        -0.917916         1.541778
 C         3.614511         0.438038         0.647936
 O         2.269831         0.917598         0.415407
 C         3.598158        -0.960086        -0.042709
 O         2.238512        -1.069469        -0.564582
 H        -0.276850         0.989300         0.099488
 H         0.300478         0.225269        -1.454511
 H        -0.570698        -0.636069        -0.077905
 H         1.098432         0.194489         2.476413
 H         0.398823        -1.464071         1.990031
 H         2.861437        -0.988877         3.525242
 H         2.348363        -2.356712         2.546906
 H         4.683153        -1.277716         1.812112
 H         4.337451         1.326917         0.789137
 H         4.239095        -1.474722        -0.812693
