19
Iteration:  3825
 C         0.274057         0.106725        -0.423181
 C         1.443184        -0.168854         0.402623
 C         1.268742        -0.713178         1.821582
 C         2.657215        -1.300049         2.337335
 C         3.796778        -0.858118         1.497104
 C         3.610043         0.343458         0.635894
 O         2.217196         1.005865         0.595508
 C         3.523215        -0.982508        -0.113706
 O         2.176159        -1.126680        -0.380799
 H        -0.230307         1.068991        -0.019960
 H         0.475836         0.355282        -1.442234
 H        -0.520867        -0.678972        -0.271261
 H         0.904878         0.056020         2.410402
 H         0.464245        -1.516406         1.930960
 H         2.815650        -1.112947         3.419826
 H         2.443766        -2.414569         2.318528
 H         4.837924        -0.905673         1.822607
 H         4.374359         1.156288         0.434368
 H         4.317133        -1.261644        -0.843614
