19
Iteration:  4661
 C         0.168584         0.229077        -0.265431
 C         1.442418        -0.274624         0.358784
 C         1.200329        -0.791704         1.743247
 C         2.547739        -1.170055         2.374050
 C         3.753556        -0.846160         1.470226
 C         3.613768         0.392816         0.642732
 O         2.371858         0.904266         0.470211
 C         3.596223        -0.945790        -0.029193
 O         2.236840        -1.152116        -0.417240
 H        -0.212175         0.834891         0.605493
 H         0.259859         0.629706        -1.249200
 H        -0.551726        -0.630430        -0.247444
 H         0.748134        -0.070148         2.475525
 H         0.409396        -1.511926         1.716890
 H         2.723839        -0.731266         3.371195
 H         2.517119        -2.206458         2.502730
 H         4.690382        -1.261162         1.858020
 H         4.426368         1.069026         0.423585
 H         4.439574        -1.338482        -0.759553
