19
Iteration:  4775
 C         0.131515         0.286294        -0.290273
 C         1.447045        -0.175369         0.357977
 C         1.270942        -0.792898         1.863979
 C         2.596127        -1.253990         2.411815
 C         3.693993        -0.815582         1.520771
 C         3.618571         0.390980         0.603550
 O         2.334352         0.911227         0.490494
 C         3.578459        -0.993532        -0.013172
 O         2.281806        -1.201570        -0.549803
 H        -0.596945         0.636698         0.435912
 H         0.078210         0.938952        -1.234474
 H        -0.518151        -0.529016        -0.607583
 H         0.849864         0.036395         2.445487
 H         0.551946        -1.623209         1.714609
 H         2.755810        -0.810475         3.445538
 H         2.760990        -2.370620         2.578760
 H         4.591413        -1.122900         2.108470
 H         4.413340         1.146721         0.482678
 H         4.278614        -1.467983        -0.799206
