19
Iteration:  1696
 C         0.178230         0.338729        -0.230894
 C         1.429869        -0.257145         0.394432
 C         1.282812        -1.249959         1.587474
 C         2.606134        -1.104722         2.416390
 C         3.785364        -0.804162         1.480172
 C         3.572202         0.438431         0.673415
 O         2.207665         0.859592         0.680055
 C         3.589742        -0.792017        -0.059102
 O         2.302338        -1.093366        -0.560846
 H        -0.278685         0.968959         0.568861
 H         0.443787         1.105370        -0.943884
 H        -0.596389        -0.455651        -0.438878
 H         0.442349        -1.071399         2.125250
 H         1.108858        -2.241823         1.117732
 H         2.259996        -0.266307         3.026608
 H         2.615114        -2.077788         2.926847
 H         4.797981        -1.122093         1.826598
 H         4.324151         1.251298         0.508964
 H         4.449614        -1.239438        -0.684643
