19
Iteration:  1366charge 0 multiplicity 1
 C         0.160362         0.201700        -0.326336
 C         1.411192        -0.232205         0.394280
 C         1.256573        -0.909501         1.737917
 C         2.619181        -1.500245         2.221660
 C         3.840534        -0.776860         1.499396
 C         3.549635         0.520206         0.706605
 O         2.208317         0.922048         0.591363
 C         3.611315        -0.752119        -0.053822
 O         2.278687        -1.167302        -0.384804
 H        -0.341527         0.965159         0.333335
 H         0.594392         0.854322        -1.075261
 H        -0.465824        -0.666693        -0.681888
 H         0.752960        -0.199992         2.440909
 H         0.404508        -1.647663         1.422866
 H         2.787258        -1.024823         3.175963
 H         2.688388        -2.553276         2.216278
 H         4.813934        -0.799629         1.833348
 H         4.260974         1.362092         0.758901
 H         4.383880        -1.039503        -0.798194
