19
Iteration:  1321
 C         0.187763         0.101051        -0.419652
 C         1.428161        -0.224802         0.442743
 C         1.295592        -0.872160         1.770726
 C         2.654216        -1.533254         2.227900
 C         3.760831        -0.777752         1.523292
 C         3.554501         0.523705         0.656851
 O         2.250051         0.931654         0.659784
 C         3.618324        -0.795774        -0.021960
 O         2.197650        -1.003870        -0.437300
 H        -0.612610         0.743000         0.039917
 H         0.532423         0.679596        -1.285297
 H        -0.196799        -0.990620        -0.623946
 H         1.016608        -0.013800         2.511871
 H         0.475223        -1.686832         1.918108
 H         2.612932        -1.466498         3.311739
 H         2.780863        -2.418600         1.733525
 H         4.729713        -0.953082         1.956231
 H         4.220229         1.346203         0.437451
 H         4.341340        -1.187435        -0.628526
