19
Iteration:  1811
 C         0.141516         0.161621        -0.321899
 C         1.489396        -0.336465         0.356406
 C         1.313857        -0.883897         1.828364
 C         2.557104        -1.588880         2.100204
 C         3.720358        -0.734079         1.574894
 C         3.525993         0.545717         0.635442
 O         2.201492         1.056927         0.536365
 C         3.653246        -0.826004         0.022589
 O         2.295916        -1.089765        -0.390346
 H        -0.467257         0.720989         0.395426
 H         0.423692         0.865057        -1.205182
 H        -0.370506        -0.752603        -0.541192
 H         1.322626        -0.009687         2.524641
 H         0.554520        -1.574583         2.081081
 H         2.800260        -1.774248         3.158161
 H         2.550988        -2.541376         1.597248
 H         4.712327        -0.759841         2.146205
 H         4.315232         1.343080         0.788094
 H         4.435829        -1.100853        -0.551499
