19
Iteration:  1354charge 0 multiplicity 1
 C         0.251525         0.299123        -0.365531
 C         1.433806        -0.241656         0.406171
 C         1.290127        -0.898381         1.741103
 C         2.693868        -1.460758         2.203796
 C         3.745918        -0.809117         1.418696
 C         3.449725         0.500961         0.748012
 O         2.150970         0.935244         0.562458
 C         3.663690        -0.745556        -0.054205
 O         2.279923        -1.216608        -0.310428
 H        -0.461455         0.789158         0.348598
 H         0.516561         0.841214        -1.252997
 H        -0.464183        -0.471594        -0.829668
 H         1.050879        -0.162160         2.584597
 H         0.617268        -1.840613         1.830204
 H         2.691361        -1.418249         3.282905
 H         2.734025        -2.513172         2.077841
 H         4.625180        -0.841733         1.957279
 H         4.173319         1.309276         0.706137
 H         4.334965        -0.984767        -0.827386
