19
Iteration:   979
 C         0.221594         0.173717        -0.374604
 C         1.412191        -0.261558         0.408304
 C         1.220904        -1.208651         1.546617
 C         2.675430        -1.202876         2.270707
 C         3.785585        -0.842760         1.403483
 C         3.565259         0.476090         0.706062
 O         2.204361         0.925311         0.903944
 C         3.567974        -0.754918        -0.063244
 O         2.274710        -0.999731        -0.442043
 H        -0.445450         0.795831         0.286071
 H         0.575454         0.666076        -1.279514
 H        -0.445973        -0.618558        -0.751706
 H         0.575881        -0.741682         2.272699
 H         1.056433        -2.171273         1.177600
 H         2.704328        -0.427996         3.077922
 H         2.585950        -2.163298         2.773565
 H         4.794905        -1.094960         1.704490
 H         4.295620         1.331510         0.598438
 H         4.306002        -0.988612        -0.921645
