19
Iteration:  4324
 C         0.235696         0.333219        -0.343243
 C         1.423220        -0.258939         0.351069
 C         1.254159        -0.834738         1.800880
 C         2.701857        -1.188214         2.448420
 C         3.776335        -0.795583         1.531712
 C         3.565829         0.428132         0.624129
 O         2.243119         0.880504         0.482501
 C         3.519418        -0.989307        -0.009495
 O         2.204457        -1.251167        -0.467564
 H        -0.060393         1.223180         0.117261
 H         0.610140         0.745575        -1.343093
 H        -0.641023        -0.207192        -0.582456
 H         0.679488        -0.011311         2.424951
 H         0.682191        -1.745716         1.809005
 H         2.770008        -0.641845         3.433410
 H         2.891010        -2.235343         2.484327
 H         4.755306        -1.093296         1.878844
 H         4.317577         1.132422         0.270676
 H         4.170173        -1.636908        -0.491474
