19
Iteration:  1694charge 0 multiplicity 1
 C         0.158917         0.332049        -0.234798
 C         1.441542        -0.267011         0.393804
 C         1.272878        -1.248833         1.580105
 C         2.591930        -1.102884         2.427262
 C         3.791914        -0.776653         1.467543
 C         3.571235         0.423846         0.687061
 O         2.223868         0.856932         0.692470
 C         3.591508        -0.803076        -0.067079
 O         2.303596        -1.083751        -0.570900
 H        -0.246264         0.952110         0.560494
 H         0.438420         1.109455        -0.968249
 H        -0.521625        -0.469163        -0.419693
 H         0.358306        -1.046409         2.147511
 H         1.120636        -2.208726         1.095550
 H         2.312094        -0.258033         3.074385
 H         2.654098        -2.106152         2.977650
 H         4.832998        -1.093787         1.797569
 H         4.308544         1.238997         0.476301
 H         4.323504        -1.237912        -0.650366
