19
Iteration:  3679
 C         0.185716         0.151940        -0.329096
 C         1.401404        -0.096307         0.424509
 C         1.233509        -0.859841         1.722549
 C         2.663687        -1.306864         2.416845
 C         3.804755        -0.902391         1.520430
 C         3.555616         0.424600         0.580676
 O         2.290299         0.973031         0.486801
 C         3.558307        -0.952609         0.022873
 O         2.220717        -1.046103        -0.436327
 H        -0.612460         0.727087         0.033233
 H         0.256347         0.359436        -1.424335
 H        -0.337808        -0.770436        -0.357271
 H         0.732680        -0.168783         2.379561
 H         0.706720        -1.743421         1.605435
 H         2.942962        -0.794093         3.358759
 H         2.681880        -2.409467         2.605196
 H         4.900216        -1.097594         1.813165
 H         4.520392         1.050947         0.567618
 H         4.252594        -1.535179        -0.611522
