19
Iteration:  1126
 C         0.157090         0.204479        -0.280966
 C         1.418306        -0.260014         0.414866
 C         1.270938        -0.959102         1.717455
 C         2.602306        -1.489947         2.185680
 C         3.777971        -0.732234         1.464049
 C         3.496586         0.502043         0.753240
 O         2.174830         0.946749         0.581505
 C         3.670030        -0.786112        -0.029511
 O         2.345348        -1.076319        -0.412076
 H        -0.496893         0.807356         0.328618
 H         0.418413         0.813305        -1.171776
 H        -0.323309        -0.655454        -0.795013
 H         0.864900        -0.282916         2.418793
 H         0.462345        -1.711933         1.750531
 H         2.735288        -1.392325         3.312039
 H         2.875446        -2.622443         2.135630
 H         4.789362        -0.960933         1.951316
 H         4.223177         1.283806         0.557350
 H         4.465748        -1.008461        -0.809437
