19
Iteration:  1066
 C         0.144870         0.050516        -0.394534
 C         1.437910        -0.214466         0.403833
 C         1.198424        -0.983168         1.750441
 C         2.612948        -1.467248         2.250252
 C         3.786125        -0.908412         1.410142
 C         3.534342         0.535029         0.736601
 O         2.232477         1.036970         0.679063
 C         3.685696        -0.715856        -0.109249
 O         2.297474        -0.988127        -0.376399
 H        -0.509396         0.653581         0.318699
 H         0.395387         0.610799        -1.306593
 H        -0.330666        -0.922657        -0.485739
 H         0.558724        -0.466094         2.576633
 H         0.728574        -1.906149         1.407143
 H         2.857422        -0.885163         3.101738
 H         2.541400        -2.459420         2.415001
 H         4.758164        -1.256042         1.604786
 H         4.360577         1.300564         0.894762
 H         4.414707        -1.054120        -0.850220
