19
Iteration:   170charge 0 multiplicity 1
 C         0.109900         0.028193        -0.306761
 C         1.464490        -0.225346         0.356939
 C         1.232267        -0.877119         1.808222
 C         2.577153        -1.601980         2.110953
 C         3.716366        -0.810849         1.483465
 C         3.565603         0.562082         0.746865
 O         2.249998         1.022410         0.600955
 C         3.685429        -0.748047        -0.012324
 O         2.324768        -0.979696        -0.435113
 H        -0.499111         0.541375         0.483386
 H         0.260721         0.458589        -1.398913
 H        -0.293548        -1.066166        -0.507408
 H         1.032383        -0.102437         2.588680
 H         0.356003        -1.557828         1.841433
 H         2.788311        -1.538389         3.197946
 H         2.562773        -2.692683         1.797448
 H         4.759851        -0.951183         1.899204
 H         4.261364         1.315223         0.981901
 H         4.419945        -1.057838        -0.702374
