19
Iteration:  1484
 C         0.179823         0.287544        -0.333359
 C         1.438872        -0.218783         0.408459
 C         1.278694        -1.180282         1.636260
 C         2.657112        -1.248333         2.400381
 C         3.781187        -0.830844         1.463763
 C         3.608914         0.496468         0.688546
 O         2.156738         0.920804         0.652467
 C         3.592953        -0.836470        -0.079270
 O         2.227612        -1.068184        -0.474451
 H        -0.427339         0.957929         0.332879
 H         0.555365         1.006940        -1.026811
 H        -0.500623        -0.500233        -0.750959
 H         0.434531        -0.825898         2.278667
 H         1.014421        -2.123766         1.344805
 H         2.660774        -0.607219         3.385130
 H         3.024535        -2.310542         2.637685
 H         4.792833        -0.878165         1.715400
 H         4.390190         1.296322         0.700756
 H         4.506046        -1.345707        -0.598761
