19
Iteration:  4188charge 0 multiplicity 1
 C         0.104622         0.172445        -0.380567
 C         1.442196        -0.156656         0.394130
 C         1.238069        -0.815050         1.720520
 C         2.580832        -1.129911         2.387963
 C         3.802309        -0.826918         1.438997
 C         3.695620         0.415020         0.549895
 O         2.370260         0.882569         0.611307
 C         3.535864        -0.946986        -0.013231
 O         2.184187        -1.172787        -0.338853
 H        -0.373067         0.975812         0.187673
 H         0.382254         0.494372        -1.371739
 H        -0.508839        -0.731621        -0.342948
 H         0.404181        -0.238495         2.203742
 H         0.799321        -1.865834         1.545054
 H         2.563228        -0.641987         3.355871
 H         2.589661        -2.209540         2.503834
 H         4.787697        -1.176201         1.694334
 H         4.598821         0.992682         0.335996
 H         4.152374        -1.553590        -0.554509
