19
Iteration:   184
 C         0.173761         0.074102        -0.268641
 C         1.450929        -0.245614         0.453717
 C         1.183642        -0.879427         1.844939
 C         2.536548        -1.473901         2.054927
 C         3.801583        -0.758908         1.530988
 C         3.544302         0.523948         0.742471
 O         2.176529         0.929126         0.616690
 C         3.695331        -0.735235        -0.012941
 O         2.382300        -1.067974        -0.507812
 H        -0.473155         0.594874         0.445572
 H         0.314442         0.843035        -1.059568
 H        -0.356761        -0.794637        -0.618440
 H         0.955304        -0.023554         2.433046
 H         0.456390        -1.700147         1.814923
 H         2.638650        -1.929554         3.103260
 H         2.499260        -2.300439         1.381618
 H         4.688006        -0.923941         2.023164
 H         4.247876         1.355723         0.379254
 H         4.515940        -1.012121        -0.701243
