19
Iteration:   725
 C         0.124405         0.068753        -0.426990
 C         1.424756        -0.192002         0.413409
 C         1.285125        -1.152186         1.654624
 C         2.648511        -1.283344         2.349679
 C         3.790903        -0.880749         1.392410
 C         3.583331         0.466577         0.827579
 O         2.246838         0.958305         0.853755
 C         3.545045        -0.758406        -0.113678
 O         2.251671        -0.907851        -0.557419
 H        -0.643760         0.639835         0.109539
 H         0.568289         0.545188        -1.296072
 H        -0.144498        -0.888720        -0.856995
 H         0.344002        -0.933931         2.172902
 H         1.055632        -2.106387         1.284457
 H         2.692684        -0.505245         3.179512
 H         2.805601        -2.303356         2.898113
 H         4.755240        -0.983557         1.752893
 H         4.375112         1.295795         0.718891
 H         4.444698        -0.839191        -0.776997
