19
Iteration:  2723charge 0 multiplicity 1
 C         0.125536         0.156058        -0.363545
 C         1.433494        -0.264248         0.358526
 C         1.384981        -0.803852         1.871477
 C         2.601337        -1.455942         2.184886
 C         3.754587        -0.797097         1.525615
 C         3.528215         0.486441         0.701154
 O         2.224444         0.998194         0.476647
 C         3.585575        -0.857808         0.040614
 O         2.307126        -1.139219        -0.431624
 H        -0.259276         0.974443         0.188178
 H         0.280163         0.602647        -1.355693
 H        -0.578527        -0.644450        -0.247267
 H         1.191414         0.037372         2.642541
 H         0.482291        -1.468417         2.075196
 H         2.582894        -1.667171         3.297938
 H         2.564873        -2.418905         1.811241
 H         4.675532        -0.861364         2.123009
 H         4.338158         1.296647         0.603711
 H         4.311866        -1.213533        -0.605128
