19
Iteration:  4751charge 0 multiplicity 1
 C         0.185854         0.118789        -0.303961
 C         1.430650        -0.277089         0.332770
 C         1.254120        -0.701369         1.739832
 C         2.549776        -1.229267         2.319765
 C         3.836019        -0.880676         1.478751
 C         3.621385         0.399375         0.655148
 O         2.344894         0.934641         0.576459
 C         3.601977        -1.001229        -0.015783
 O         2.161243        -1.074379        -0.412068
 H        -0.273482         0.788131         0.416514
 H         0.318295         0.649662        -1.271485
 H        -0.589751        -0.627169        -0.426068
 H         0.811502         0.215257         2.242909
 H         0.562001        -1.478916         1.802368
 H         2.575769        -0.818127         3.363239
 H         2.486927        -2.246173         2.411020
 H         4.801135        -1.193556         1.912465
 H         4.369850         1.137942         0.302057
 H         4.143726        -1.392923        -0.777030
