19
Iteration:  1047
 C         0.080664         0.068266        -0.242860
 C         1.453673        -0.179798         0.370913
 C         1.251206        -1.033210         1.596578
 C         2.592019        -1.348592         2.349022
 C         3.775573        -0.844490         1.491868
 C         3.613709         0.502226         0.785918
 O         2.257928         0.949723         0.680121
 C         3.574375        -0.783020        -0.037367
 O         2.307428        -0.970832        -0.613051
 H        -0.526902         0.616983         0.471313
 H         0.284607         0.486586        -1.237649
 H        -0.395190        -0.906907        -0.335505
 H         0.761928        -0.404675         2.256319
 H         0.774645        -1.910646         1.331280
 H         2.653918        -1.002926         3.409637
 H         2.857345        -2.443741         2.291982
 H         4.713642        -0.971338         1.983911
 H         4.413071         1.248831         0.719632
 H         4.380021        -0.999211        -0.651705
