19
Iteration:  1702charge 0 multiplicity 1
 C         0.211242         0.350535        -0.194202
 C         1.390761        -0.251966         0.385226
 C         1.340426        -1.256731         1.569927
 C         2.616601        -1.116200         2.350787
 C         3.754880        -0.907160         1.525897
 C         3.581128         0.515703         0.632681
 O         2.167401         0.887309         0.642228
 C         3.608268        -0.808679        -0.050646
 O         2.294110        -1.114418        -0.521582
 H        -0.316887         0.923199         0.562437
 H         0.470312         1.020729        -1.064426
 H        -0.615450        -0.210265        -0.591501
 H         0.414720        -1.014639         2.351490
 H         1.155205        -2.273917         1.232555
 H         2.349798        -0.272132         3.024285
 H         2.669792        -2.059778         2.971128
 H         4.732797        -1.163497         1.944893
 H         4.288691         1.329602         0.683465
 H         4.485029        -1.013764        -0.600638
