19
Iteration:  4537charge 0 multiplicity 1
 C         0.143644         0.171307        -0.292678
 C         1.496101        -0.172507         0.390791
 C         1.294171        -0.922030         1.680583
 C         2.586504        -1.102972         2.554520
 C         3.702396        -0.926606         1.506471
 C         3.626776         0.398972         0.521914
 O         2.433339         1.030199         0.528329
 C         3.419823        -1.022492         0.035768
 O         2.188085        -1.083134        -0.503171
 H        -0.335158         1.022319         0.191690
 H         0.434010         0.327297        -1.398782
 H        -0.447521        -0.729729        -0.139637
 H         0.486127        -0.509485         2.193554
 H         0.973729        -2.001238         1.251170
 H         2.609252        -0.405491         3.363359
 H         2.787876        -2.150907         2.931149
 H         4.679943        -1.356958         1.803685
 H         4.546026         0.931801         0.253945
 H         4.148449        -1.413412        -0.538193
