19
Iteration:  2788
 C         0.181717         0.202750        -0.402847
 C         1.433607        -0.228114         0.384815
 C         1.275728        -1.011935         1.702483
 C         2.654606        -1.137156         2.501949
 C         3.823486        -0.848308         1.454914
 C         3.602128         0.400471         0.694529
 O         2.234788         0.838859         0.699064
 C         3.519738        -0.908608        -0.092188
 O         2.223262        -1.019674        -0.562540
 H        -0.360306         0.853800         0.270121
 H         0.311636         0.825572        -1.355957
 H        -0.411405        -0.664556        -0.716946
 H         0.699536        -0.319471         2.387591
 H         0.799922        -2.018195         1.659663
 H         2.745881        -0.314184         3.299764
 H         2.766612        -2.118061         2.982948
 H         4.916142        -0.984210         1.703041
 H         4.269533         1.283694         0.669145
 H         4.097942        -1.341600        -0.923525
