19
Iteration:   533
 C         0.127305         0.284388        -0.248281
 C         1.435613        -0.304530         0.321428
 C         1.339003        -1.257693         1.527049
 C         2.649582        -1.211719         2.423178
 C         3.727428        -0.766964         1.536709
 C         3.576108         0.529740         0.712787
 O         2.179878         0.853556         0.828321
 C         3.569891        -0.845345        -0.038205
 O         2.331339        -0.953855        -0.719920
 H        -0.379640         0.787178         0.639107
 H         0.340631         0.979014        -1.106797
 H        -0.570647        -0.584265        -0.562574
 H         0.568790        -0.792872         2.134162
 H         1.159611        -2.337701         1.468325
 H         2.392052        -0.450304         3.179326
 H         2.886967        -2.344055         2.709353
 H         4.743965        -1.110661         2.038500
 H         4.246013         1.408102         0.718631
 H         4.391208        -1.138518        -0.688643
