19
Iteration:    52
 C         0.212631         0.154936        -0.229414
 C         1.462498        -0.229639         0.361827
 C         1.262605        -1.231000         1.661576
 C         2.612545        -1.209314         2.505681
 C         3.745081        -0.825404         1.431419
 C         3.590310         0.426375         0.762818
 O         2.264743         0.961350         0.732832
 C         3.515382        -0.839557        -0.103305
 O         2.252141        -0.848030        -0.668969
 H        -0.465769         0.484143         0.519482
 H         0.229232         0.738623        -1.200480
 H        -0.159041        -0.769002        -0.762677
 H         0.345078        -0.950201         2.184379
 H         1.203970        -2.275874         1.255083
 H         2.594054        -0.394192         3.302084
 H         2.828333        -2.212706         2.802888
 H         4.789216        -1.326268         1.604743
 H         4.311294         1.124764         0.436982
 H         4.297181        -1.231667        -0.764296
