19
Iteration:   260charge 0 multiplicity 1
 C         0.100496         0.047500        -0.260321
 C         1.487872        -0.276907         0.332342
 C         1.256166        -1.112725         1.593180
 C         2.591658        -1.240952         2.326131
 C         3.748013        -0.863358         1.427202
 C         3.628282         0.493606         0.741021
 O         2.255684         0.951741         0.894449
 C         3.564955        -0.812645        -0.068018
 O         2.299052        -0.877678        -0.622333
 H        -0.443887         0.670425         0.492084
 H         0.279130         0.527505        -1.241959
 H        -0.346030        -0.896809        -0.506129
 H         0.613969        -0.473053         2.168924
 H         0.835625        -2.102951         1.365940
 H         2.582720        -0.474955         3.170960
 H         2.764717        -2.233026         2.721904
 H         4.667316        -1.250185         1.733910
 H         4.442221         1.335855         0.648374
 H         4.258254        -1.150522        -0.917835
