19
Iteration:  1364charge 0 multiplicity 1
 C         0.171202         0.211855        -0.327420
 C         1.399568        -0.233862         0.403208
 C         1.264296        -0.895880         1.723385
 C         2.628893        -1.503517         2.204905
 C         3.822587        -0.783444         1.495600
 C         3.539305         0.526287         0.712583
 O         2.198170         0.909437         0.586648
 C         3.628693        -0.742180        -0.062191
 O         2.274891        -1.181254        -0.370008
 H        -0.288356         0.958997         0.311079
 H         0.577973         0.879079        -1.073850
 H        -0.442614        -0.636492        -0.729255
 H         0.789841        -0.206614         2.508447
 H         0.459724        -1.583913         1.435318
 H         2.803068        -1.086682         3.226141
 H         2.700853        -2.555268         2.296900
 H         4.829827        -0.752817         1.841798
 H         4.264263         1.334268         0.761901
 H         4.337148        -1.015965        -0.759161
