19
Iteration:   687charge 0 multiplicity 1
 C         0.178522         0.142393        -0.246932
 C         1.479658        -0.367084         0.361157
 C         1.258743        -1.028619         1.688663
 C         2.627139        -1.489751         2.224399
 C         3.752741        -0.738991         1.538235
 C         3.472212         0.560154         0.746785
 O         2.152570         0.970695         0.685852
 C         3.643041        -0.732264        -0.005272
 O         2.383570        -0.988269        -0.585471
 H        -0.421284         0.824451         0.352708
 H         0.324000         0.791856        -1.140709
 H        -0.563022        -0.659990        -0.448677
 H         0.838513        -0.352239         2.423604
 H         0.475020        -1.864836         1.484741
 H         2.675216        -1.296980         3.299457
 H         2.778211        -2.528273         2.153883
 H         4.840622        -0.975249         1.927096
 H         4.280587         1.154859         0.511205
 H         4.308891        -1.013204        -0.769007
