19
Iteration:  3520
 C         0.195504         0.291590        -0.287170
 C         1.468901        -0.251880         0.351598
 C         1.296929        -1.189094         1.697564
 C         2.612992        -1.036598         2.459794
 C         3.722353        -0.796480         1.475499
 C         3.595055         0.380108         0.632920
 O         2.307433         0.987044         0.550809
 C         3.495187        -0.992067        -0.016322
 O         2.190730        -1.096120        -0.453235
 H        -0.205032         1.002871         0.456398
 H         0.558514         0.855011        -1.265386
 H        -0.349368        -0.637022        -0.553159
 H         0.520444        -0.712475         2.304433
 H         1.001213        -2.241181         1.413024
 H         2.505751        -0.003873         2.938947
 H         2.836214        -1.816155         3.251459
 H         4.758699        -1.122935         1.588211
 H         4.521021         0.965647         0.300161
 H         4.291630        -1.468937        -0.676838
