19
Iteration:  2041charge 0 multiplicity 1
 C         0.162675         0.181082        -0.326369
 C         1.435567        -0.250347         0.378143
 C         1.267967        -0.839337         1.810129
 C         2.613537        -1.563503         2.156237
 C         3.754530        -0.727821         1.547004
 C         3.475856         0.507747         0.724796
 O         2.206973         0.917535         0.513089
 C         3.644584        -0.818944         0.053165
 O         2.353619        -1.088141        -0.433202
 H        -0.464095         0.850129         0.361206
 H         0.478569         0.912068        -1.075034
 H        -0.400981        -0.736527        -0.770730
 H         1.321160         0.050218         2.418845
 H         0.464465        -1.500931         2.123194
 H         2.647093        -1.725016         3.304884
 H         2.689192        -2.542242         1.697336
 H         4.646330        -0.992999         2.025093
 H         4.145629         1.332240         0.421266
 H         4.304534        -0.841874        -0.816234
