19
Iteration:  2853
 C         0.055816         0.234675        -0.176797
 C         1.433195        -0.221654         0.357763
 C         1.245575        -1.117022         1.667000
 C         2.581133        -1.113625         2.431691
 C         3.786219        -0.834711         1.544267
 C         3.680156         0.434994         0.650519
 O         2.298390         0.965239         0.532318
 C         3.537263        -0.971585        -0.035185
 O         2.297629        -1.076408        -0.562392
 H        -0.387508         0.717341         0.687964
 H         0.328578         1.017917        -1.010879
 H        -0.554141        -0.539314        -0.648341
 H         0.332937        -0.739348         2.164581
 H         1.093756        -2.081726         1.299888
 H         2.595689        -0.313245         3.231170
 H         2.502640        -2.091499         2.926614
 H         4.866458        -1.075171         1.797405
 H         4.437238         1.173684         0.455341
 H         4.475225        -1.279934        -0.614227
