19
Iteration:  3129charge 0 multiplicity 1
 C         0.158091         0.068245        -0.322509
 C         1.449623        -0.203147         0.336797
 C         1.281007        -0.725462         1.793093
 C         2.564381        -1.373835         2.346370
 C         3.739828        -0.863478         1.481802
 C         3.640037         0.502086         0.632622
 O         2.243601         0.904621         0.552976
 C         3.607718        -0.847859         0.001936
 O         2.260986        -1.113314        -0.445560
 H        -0.328037         0.882460         0.251227
 H         0.339553         0.294511        -1.372068
 H        -0.586121        -0.741070        -0.151920
 H         0.972816         0.217600         2.284976
 H         0.456159        -1.402568         1.897656
 H         2.763715        -1.247394         3.447745
 H         2.533160        -2.437942         2.148364
 H         4.790055        -0.957067         1.823439
 H         4.359726         1.284488         0.551962
 H         4.395432        -1.289804        -0.758734
