19
Iteration:  4449charge 0 multiplicity 1
 C         0.184336         0.258814        -0.381006
 C         1.409262        -0.110777         0.425159
 C         1.239606        -0.870863         1.851160
 C         2.599009        -1.326571         2.356941
 C         3.850833        -0.831605         1.511883
 C         3.668682         0.439096         0.502646
 O         2.304908         1.010659         0.401401
 C         3.539414        -0.989203         0.040742
 O         2.205727        -1.197236        -0.272200
 H        -0.596332         0.893175         0.174968
 H         0.379635         0.772419        -1.312134
 H        -0.492874        -0.572368        -0.741461
 H         0.546945        -0.384769         2.398596
 H         0.441613        -1.652859         1.473322
 H         2.750556        -1.020719         3.376440
 H         2.664122        -2.491426         2.340573
 H         4.718602        -1.100029         2.162620
 H         4.355799         1.205291         0.181270
 H         4.231128        -1.543605        -0.723179
