19
Iteration:   882
 C         0.209491         0.119978        -0.321850
 C         1.412802        -0.251569         0.382152
 C         1.293588        -0.966985         1.783095
 C         2.655129        -1.577007         2.137536
 C         3.762655        -0.711198         1.527216
 C         3.564166         0.553148         0.711402
 O         2.101074         0.993971         0.606752
 C         3.626319        -0.739366         0.044840
 O         2.324385        -1.022935        -0.460711
 H        -0.526318         0.571110         0.373274
 H         0.356478         0.792265        -1.170513
 H        -0.356629        -0.767521        -0.634039
 H         1.110414        -0.164134         2.474653
 H         0.584796        -1.770945         1.678677
 H         2.531325        -1.815938         3.247628
 H         2.709779        -2.575240         1.531857
 H         4.735529        -1.064326         1.932498
 H         4.364067         1.317869         0.745750
 H         4.448481        -1.229097        -0.602084
