19
Iteration:  1023charge 0 multiplicity 1
 C         0.088472         0.236721        -0.214331
 C         1.476768        -0.328932         0.287189
 C         1.358056        -1.169951         1.612354
 C         2.593973        -1.310280         2.429757
 C         3.740140        -0.802156         1.522699
 C         3.553414         0.479393         0.716835
 O         2.172777         0.915709         0.664261
 C         3.597272        -0.847219         0.020039
 O         2.341118        -0.890706        -0.655796
 H        -0.232428         0.856811         0.665126
 H         0.278905         0.791570        -1.147465
 H        -0.735763        -0.462745        -0.347792
 H         0.672451        -0.582521         2.202593
 H         1.068898        -2.098087         1.320472
 H         2.508933        -0.823594         3.400916
 H         2.985866        -2.303453         2.580610
 H         4.689840        -1.000762         1.922676
 H         4.287687         1.323919         0.479772
 H         4.412651        -1.244842        -0.627982
