19
Iteration:   938charge 0 multiplicity 1
 C         0.189683         0.090781        -0.320500
 C         1.431268        -0.303030         0.363141
 C         1.304138        -1.002513         1.706650
 C         2.684540        -1.398412         2.334364
 C         3.752920        -0.870207         1.458603
 C         3.454482         0.463958         0.793289
 O         2.196005         0.965990         0.667304
 C         3.592345        -0.746585        -0.048032
 O         2.308179        -0.895866        -0.582524
 H        -0.499728         0.545812         0.412089
 H         0.433293         0.790825        -1.109595
 H        -0.270425        -0.705207        -0.866008
 H         0.671627        -0.420579         2.317113
 H         0.608942        -1.880484         1.564901
 H         2.698215        -0.906092         3.356895
 H         2.923432        -2.505179         2.615688
 H         4.755672        -1.038443         1.732138
 H         4.306487         1.206074         0.979164
 H         4.448422        -1.065628        -0.727819
