19
Iteration:   753charge 0 multiplicity 1
 C         0.150164         0.189842        -0.239755
 C         1.459125        -0.283888         0.344596
 C         1.287144        -1.240455         1.558764
 C         2.565152        -1.186810         2.328268
 C         3.788907        -0.787438         1.486940
 C         3.607400         0.505736         0.681196
 O         2.214412         0.851006         0.855825
 C         3.567684        -0.781821        -0.059816
 O         2.299731        -0.911250        -0.607614
 H        -0.488435         0.704585         0.518157
 H         0.427286         0.957821        -0.993970
 H        -0.246975        -0.712104        -0.714318
 H         0.304075        -1.052232         1.951306
 H         1.057812        -2.384631         1.281848
 H         2.440400        -0.478953         3.120885
 H         2.762429        -2.051859         2.842304
 H         4.793689        -1.210636         1.848199
 H         4.234992         1.384228         0.627011
 H         4.439561        -1.224623        -0.568924
