19
Iteration:   993
 C         0.201998         0.245259        -0.301403
 C         1.451986        -0.235080         0.424352
 C         1.284709        -1.237892         1.580088
 C         2.533816        -1.227749         2.307327
 C         3.843957        -0.846132         1.395375
 C         3.550730         0.508083         0.814057
 O         2.186332         0.926722         0.751558
 C         3.612076        -0.755508        -0.154408
 O         2.257124        -1.070216        -0.460858
 H        -0.341715         0.941377         0.337774
 H         0.541959         0.825537        -1.154893
 H        -0.371706        -0.641925        -0.438638
 H         0.502836        -1.021735         2.243527
 H         1.073248        -2.209168         0.997879
 H         2.389335        -0.348576         3.024942
 H         3.052750        -2.151911         2.790061
 H         4.745417        -0.936094         1.937257
 H         4.303197         1.340913         0.835743
 H         4.311685        -0.972162        -0.920847
