19
Iteration:  3322charge 0 multiplicity 1
 C         0.156987         0.173655        -0.309857
 C         1.441897        -0.239951         0.385434
 C         1.211569        -0.917425         1.739900
 C         2.588118        -1.170137         2.381388
 C         3.826490        -0.877940         1.473445
 C         3.629086         0.475188         0.666117
 O         2.296680         0.978279         0.528683
 C         3.567430        -0.951859        -0.012599
 O         2.207649        -1.123751        -0.483133
 H        -0.159486         0.994974         0.374441
 H         0.340005         0.562082        -1.318098
 H        -0.584803        -0.674490        -0.260712
 H         0.453809        -0.487748         2.366357
 H         0.838398        -1.938156         1.674912
 H         2.786348        -0.603289         3.310675
 H         2.839916        -2.205445         2.785373
 H         4.825418        -0.966816         1.932688
 H         4.333886         1.127856         0.317790
 H         4.254769        -1.434524        -0.718862
