19
Iteration:  1340
 C         0.207285         0.247261        -0.435942
 C         1.398300        -0.266764         0.375570
 C         1.282730        -0.950086         1.903206
 C         2.654548        -1.506969         2.185149
 C         3.815798        -0.752422         1.504740
 C         3.499908         0.534721         0.716620
 O         2.155928         0.999893         0.580461
 C         3.569008        -0.824205        -0.037044
 O         2.297962        -1.173485        -0.379425
 H        -0.300539         0.935771         0.193291
 H         0.639291         0.999810        -1.120506
 H        -0.266782        -0.603926        -0.901711
 H         0.855864        -0.062204         2.475550
 H         0.484390        -1.608952         1.901558
 H         3.041163        -1.572983         3.230585
 H         2.672291        -2.593268         1.844723
 H         4.958387        -0.842598         1.739802
 H         4.249026         1.312325         0.717190
 H         4.324309        -1.024048        -0.755011
