19
Iteration:    51
 C         0.212858         0.148996        -0.222475
 C         1.463710        -0.234082         0.364223
 C         1.262429        -1.217784         1.653280
 C         2.610683        -1.206003         2.495513
 C         3.748638        -0.825693         1.428071
 C         3.580830         0.420885         0.764746
 O         2.262678         0.961902         0.737471
 C         3.514328        -0.841784        -0.105676
 O         2.257824        -0.841690        -0.665379
 H        -0.470327         0.473055         0.570662
 H         0.230835         0.735402        -1.219894
 H        -0.131233        -0.828987        -0.764288
 H         0.345085        -0.911372         2.172671
 H         1.191651        -2.256825         1.246690
 H         2.597473        -0.384052         3.275944
 H         2.828831        -2.230915         2.814554
 H         4.783873        -1.350565         1.623369
 H         4.323582         1.118746         0.440789
 H         4.306621        -1.264094        -0.758989
