19
Iteration:  1159
 C         0.067768         0.024582        -0.217616
 C         1.473352        -0.198458         0.322267
 C         1.278962        -1.008174         1.647166
 C         2.599808        -1.431903         2.370930
 C         3.710787        -0.854335         1.459110
 C         3.582545         0.491339         0.803506
 O         2.285754         1.077217         0.587034
 C         3.640160        -0.840029        -0.021297
 O         2.311681        -0.921874        -0.521628
 H        -0.679464         0.538034         0.384010
 H         0.121624         0.523313        -1.195733
 H        -0.388366        -0.990271        -0.282222
 H         0.698110        -0.411273         2.297461
 H         0.685072        -1.857320         1.245819
 H         2.474283        -0.842410         3.293416
 H         2.829506        -2.560139         2.318157
 H         4.763530        -1.168348         1.755616
 H         4.340031         1.260396         0.598047
 H         4.418630        -1.216237        -0.744683
