19
Iteration:  3355charge 0 multiplicity 1
 C         0.167783        -0.004942        -0.289236
 C         1.445457        -0.122008         0.409684
 C         1.300323        -0.746131         1.787965
 C         2.616825        -1.350491         2.373625
 C         3.766311        -0.801197         1.521640
 C         3.617148         0.462043         0.700572
 O         2.345983         1.023653         0.471188
 C         3.546063        -0.993197        -0.042900
 O         2.174122        -1.096113        -0.492160
 H        -0.597925         0.553277         0.259406
 H         0.208360         0.597172        -1.203591
 H        -0.207238        -0.988592        -0.646387
 H         0.869051         0.005931         2.396752
 H         0.572352        -1.543345         1.669438
 H         2.742392        -1.034703         3.422741
 H         2.442403        -2.449976         2.228700
 H         4.686810        -0.939557         2.085144
 H         4.376055         1.094910         0.430716
 H         4.128772        -1.514112        -0.761153
