19
Iteration:  2432
 C         0.119831         0.049557        -0.265812
 C         1.450901        -0.139286         0.383891
 C         1.291737        -0.837503         1.722052
 C         2.588919        -1.398303         2.354754
 C         3.734294        -0.868237         1.524674
 C         3.611313         0.506905         0.716611
 O         2.319490         1.040753         0.517468
 C         3.528829        -0.869519        -0.059046
 O         2.278586        -1.071414        -0.462289
 H        -0.520681         0.442445         0.534732
 H         0.117599         0.592645        -1.256400
 H        -0.139375        -0.976767        -0.591249
 H         0.732891        -0.096713         2.272239
 H         0.614154        -1.672445         1.523555
 H         2.741119        -1.301688         3.356287
 H         2.498141        -2.533441         2.083217
 H         4.797887        -1.196814         1.716320
 H         4.410799         1.213152         0.731606
 H         4.328621        -1.347376        -0.693663
