19
Iteration:  4356
 C         0.190247         0.188326        -0.336410
 C         1.510004        -0.176843         0.425996
 C         1.155109        -0.782784         1.742670
 C         2.590750        -1.236231         2.284925
 C         3.815451        -0.831033         1.479434
 C         3.607141         0.382119         0.541896
 O         2.300383         0.980601         0.509618
 C         3.565930        -0.967537        -0.011289
 O         2.228098        -1.196519        -0.267235
 H        -0.223762         0.981412         0.210601
 H         0.476608         0.588419        -1.347198
 H        -0.547630        -0.568201        -0.458109
 H         0.523570        -0.133084         2.513429
 H         0.559470        -1.635903         1.682046
 H         2.864100        -0.885677         3.313113
 H         2.523918        -2.280311         2.377941
 H         4.732752        -1.118177         1.976333
 H         4.341061         1.041878         0.102333
 H         4.139248        -1.504410        -0.687531
