19
Iteration:  2487charge 0 multiplicity 1
 C         0.236307         0.151137        -0.416251
 C         1.421651        -0.168185         0.415928
 C         1.296911        -0.781389         1.828576
 C         2.620455        -1.519189         2.214855
 C         3.812514        -0.833369         1.500371
 C         3.500533         0.525366         0.717158
 O         2.230027         0.994066         0.519940
 C         3.585029        -0.806949        -0.031104
 O         2.217120        -1.203435        -0.336789
 H        -0.596362         0.724715         0.031361
 H         0.403088         0.855286        -1.321699
 H        -0.097813        -0.863040        -0.628191
 H         1.078799        -0.030322         2.554020
 H         0.456540        -1.474893         1.906275
 H         2.878892        -1.326548         3.183945
 H         2.697098        -2.661963         2.112430
 H         4.793751        -1.061098         1.943025
 H         4.299466         1.246594         0.417958
 H         4.304920        -0.924329        -0.795108
