19
Iteration:   875
 C         0.195773         0.114100        -0.382288
 C         1.454645        -0.247861         0.401085
 C         1.325822        -0.950383         1.791171
 C         2.664559        -1.601455         2.189422
 C         3.745837        -0.784586         1.564544
 C         3.478602         0.565724         0.720622
 O         2.132405         0.974153         0.618579
 C         3.593376        -0.682953        -0.026249
 O         2.339140        -1.035963        -0.471757
 H        -0.475415         0.744695         0.212597
 H         0.525657         0.826786        -1.126027
 H        -0.295270        -0.804186        -0.619252
 H         1.146654        -0.181701         2.556520
 H         0.387016        -1.675234         1.837169
 H         2.754228        -1.714849         3.239076
 H         2.573740        -2.537904         1.755916
 H         4.758588        -1.041372         1.709616
 H         4.246035         1.405706         0.772751
 H         4.386075        -1.034776        -0.700570
