19
Iteration:  2038
 C         0.148251         0.161119        -0.363008
 C         1.447858        -0.250439         0.400955
 C         1.279357        -0.816585         1.822517
 C         2.602184        -1.584403         2.139110
 C         3.769119        -0.726729         1.547088
 C         3.478960         0.518234         0.714407
 O         2.211360         0.914181         0.537557
 C         3.621980        -0.814868         0.066086
 O         2.343126        -1.079659        -0.440417
 H        -0.394841         0.780304         0.333585
 H         0.471940         0.879489        -1.144928
 H        -0.368816        -0.643450        -0.780770
 H         1.243267         0.080779         2.424795
 H         0.408717        -1.494337         2.184094
 H         2.701101        -1.666515         3.232313
 H         2.755704        -2.559495         1.729282
 H         4.732538        -1.003387         2.057958
 H         4.142588         1.260381         0.430969
 H         4.320109        -0.879750        -0.861283
