19
Iteration:  3630charge 0 multiplicity 1
 C         0.146164         0.143246        -0.318050
 C         1.479084        -0.216389         0.333313
 C         1.271964        -0.653699         1.886048
 C         2.521302        -1.422296         2.227616
 C         3.823400        -0.786510         1.488674
 C         3.544612         0.525668         0.609911
 O         2.215507         0.890852         0.499312
 C         3.661943        -0.972681         0.026432
 O         2.309071        -1.174976        -0.352252
 H        -0.239760         1.011174         0.289628
 H         0.268066         0.577369        -1.321168
 H        -0.759665        -0.472898        -0.456184
 H         1.176845         0.269736         2.531230
 H         0.408883        -1.400982         1.958466
 H         2.863219        -1.521359         3.255438
 H         2.382131        -2.431253         1.799170
 H         4.731902        -0.960072         1.973933
 H         4.143995         1.320263         0.397080
 H         4.310736        -1.315779        -0.741586
