19
Iteration:  2480
 C         0.199137         0.132739        -0.441060
 C         1.424821        -0.165385         0.372130
 C         1.316072        -0.742477         1.905410
 C         2.641010        -1.480320         2.203998
 C         3.795562        -0.850219         1.493643
 C         3.569756         0.513403         0.736430
 O         2.204572         0.954627         0.545860
 C         3.581080        -0.786264        -0.033459
 O         2.206770        -1.199889        -0.364467
 H        -0.531745         0.582660         0.269789
 H         0.518582         0.636939        -1.386340
 H        -0.099646        -0.825066        -0.887342
 H         1.074321         0.136389         2.644717
 H         0.423264        -1.450659         1.790152
 H         2.896737        -1.410745         3.355398
 H         2.488840        -2.537535         1.900650
 H         4.753815        -1.171376         1.822805
 H         4.242205         1.387421         0.563856
 H         4.376434        -0.938006        -0.731842
