19
Iteration:  4955charge 0 multiplicity 1
 C         0.166548         0.172973        -0.415418
 C         1.412825        -0.230467         0.363716
 C         1.247928        -0.800733         1.772911
 C         2.702099        -1.216139         2.452188
 C         3.780410        -0.882222         1.444810
 C         3.656654         0.418306         0.645261
 O         2.338626         1.007288         0.610035
 C         3.506494        -0.966931        -0.043344
 O         2.122747        -1.167106        -0.453619
 H        -0.529901         0.883743         0.019172
 H         0.547661         0.630137        -1.368371
 H        -0.314414        -0.790796        -0.557324
 H         0.652316        -0.067129         2.335206
 H         0.584998        -1.734244         1.747640
 H         3.020765        -0.677903         3.398233
 H         2.638565        -2.342801         2.704108
 H         4.809322        -1.074549         1.860671
 H         4.461334         1.185900         0.603282
 H         4.127190        -1.448958        -0.802100
