19
Iteration:  2198charge 0 multiplicity 1
 C         0.106166         0.145924        -0.262558
 C         1.414361        -0.170339         0.342243
 C         1.290025        -0.982151         1.715667
 C         2.614296        -1.382729         2.348415
 C         3.727897        -0.870537         1.514364
 C         3.582687         0.443937         0.746755
 O         2.272449         0.998684         0.488097
 C         3.666637        -0.800168        -0.019704
 O         2.290359        -1.038888        -0.522054
 H        -0.392497         0.721054         0.560438
 H        -0.089725         0.672524        -1.269541
 H        -0.539433        -0.731763        -0.349482
 H         0.794173        -0.348857         2.481471
 H         0.586325        -1.721536         1.538456
 H         2.595375        -0.890086         3.330057
 H         2.687825        -2.514470         2.564449
 H         4.784142        -1.081641         1.907137
 H         4.335478         1.164668         0.882566
 H         4.470777        -1.284309        -0.650030
