19
Iteration:   712charge 0 multiplicity 1
 C         0.163118         0.119662        -0.427266
 C         1.415945        -0.222646         0.403011
 C         1.298849        -1.108398         1.676061
 C         2.690614        -1.300457         2.358738
 C         3.787331        -0.918610         1.454182
 C         3.526745         0.448917         0.871561
 O         2.166601         0.947773         0.730244
 C         3.628971        -0.651976        -0.138406
 O         2.281308        -0.954046        -0.557131
 H        -0.660673         0.667851         0.103911
 H         0.278529         0.698555        -1.321518
 H        -0.327194        -0.814884        -0.568438
 H         0.753128        -0.687810         2.458571
 H         0.906293        -2.007196         1.333624
 H         2.793551        -0.758884         3.341933
 H         2.772190        -2.419469         2.574261
 H         4.773053        -1.167364         1.743595
 H         4.226107         1.245247         1.242967
 H         4.236452        -1.101183        -0.968396
