19
Iteration:  2566charge 0 multiplicity 1
 C         0.169134         0.160347        -0.269786
 C         1.450567        -0.176553         0.386349
 C         1.243647        -1.114186         1.658131
 C         2.624367        -1.060347         2.471681
 C         3.749020        -0.928028         1.439655
 C         3.636651         0.392717         0.719282
 O         2.289200         0.911015         0.635458
 C         3.492851        -0.857137        -0.075833
 O         2.263938        -0.994410        -0.593072
 H        -0.422933         1.016023         0.177257
 H         0.457523         0.297035        -1.365592
 H        -0.665643        -0.591985        -0.174970
 H         0.473594        -0.763792         2.408392
 H         0.959344        -2.160554         1.460970
 H         2.795257        -0.222755         3.110064
 H         2.805084        -1.983051         3.101056
 H         4.706086        -1.346344         1.743772
 H         4.371848         1.165507         0.691508
 H         4.332783        -1.130642        -0.704972
