19
Iteration:   322
 C         0.235367         0.279418        -0.223445
 C         1.454485        -0.299531         0.359869
 C         1.329770        -1.357167         1.574665
 C         2.606290        -1.304096         2.361432
 C         3.784843        -0.739290         1.564050
 C         3.597981         0.549303         0.623236
 O         2.171589         0.912826         0.716084
 C         3.528812        -0.848757         0.043564
 O         2.242772        -0.877642        -0.558262
 H        -0.301486         1.046698         0.308219
 H         0.339931         0.764501        -1.253955
 H        -0.610338        -0.398064        -0.479182
 H         0.382139        -1.230062         2.141037
 H         1.368847        -2.289642         0.987594
 H         2.515852        -0.627897         3.201422
 H         2.993914        -2.327745         2.604008
 H         4.760790        -0.983864         1.877117
 H         4.260170         1.311672         0.174925
 H         4.264612        -1.236703        -0.634988
