19
Iteration:  1560charge 0 multiplicity 1
 C         0.180351         0.075505        -0.343328
 C         1.422433        -0.194349         0.387399
 C         1.317105        -0.812639         1.779313
 C         2.593398        -1.563053         2.232624
 C         3.801465        -0.889925         1.571298
 C         3.514325         0.528098         0.723027
 O         2.216927         1.018149         0.541570
 C         3.580342        -0.720579        -0.088084
 O         2.286646        -1.058559        -0.415404
 H        -0.511627         0.592511         0.351499
 H         0.445646         0.563304        -1.256447
 H        -0.324767        -0.870906        -0.592138
 H         0.917224        -0.128752         2.611562
 H         0.649280        -1.603066         1.758400
 H         2.782058        -1.395784         3.326145
 H         2.646394        -2.643050         1.880208
 H         4.775509        -1.039744         1.889183
 H         4.317804         1.242928         0.751952
 H         4.387609        -1.194758        -0.801660
