19
Iteration:  1880
 C         0.170510         0.114067        -0.393911
 C         1.414614        -0.250860         0.370675
 C         1.244960        -1.054545         1.746556
 C         2.619808        -1.189980         2.435792
 C         3.765499        -0.906632         1.459367
 C         3.630141         0.468946         0.713533
 O         2.214670         0.909848         0.793314
 C         3.575456        -0.843622        -0.078292
 O         2.289403        -0.905439        -0.685147
 H        -0.576586         0.727189         0.128274
 H         0.268304         0.622704        -1.288213
 H        -0.310701        -0.890549        -0.462417
 H         0.701617        -0.286831         2.464598
 H         0.896019        -2.094411         1.692149
 H         2.636223        -0.655323         3.350812
 H         2.785841        -2.253388         2.803385
 H         4.747802        -1.254211         1.650674
 H         4.390325         1.193117         0.734451
 H         4.400497        -1.275994        -0.767668
