19
Iteration:  2554
 C         0.120829         0.191556        -0.279602
 C         1.455157        -0.282462         0.342261
 C         1.288305        -0.993717         1.741915
 C         2.623266        -1.109267         2.423798
 C         3.718096        -0.997094         1.391170
 C         3.566563         0.459554         0.740857
 O         2.265297         0.927564         0.643839
 C         3.632270        -0.895334        -0.054245
 O         2.274220        -1.007865        -0.567096
 H        -0.099123         1.143866         0.293986
 H         0.020195         0.441029        -1.421829
 H        -0.506900        -0.686064        -0.086502
 H         0.416092        -0.629876         2.248995
 H         1.105832        -1.991760         1.330426
 H         2.699523        -0.362492         3.128032
 H         2.564034        -2.111049         2.981551
 H         4.745251        -0.960971         1.677331
 H         4.341152         1.246140         0.734787
 H         4.287279        -1.339231        -0.706752
