19
Iteration:   300charge 0 multiplicity 1
 C         0.180496         0.284345        -0.147629
 C         1.449999        -0.294770         0.370907
 C         1.396940        -1.361324         1.513457
 C         2.565471        -1.169875         2.469785
 C         3.712307        -0.792684         1.474449
 C         3.553194         0.477153         0.766633
 O         2.213335         0.929655         0.725986
 C         3.562453        -0.808401        -0.123721
 O         2.286488        -0.979921        -0.643935
 H        -0.238115         1.133964         0.389245
 H         0.259908         0.681323        -1.217483
 H        -0.702962        -0.382293        -0.313644
 H         0.424060        -1.141345         2.002695
 H         1.472853        -2.318729         0.977345
 H         2.454780        -0.309575         3.079739
 H         2.824778        -2.131241         2.971017
 H         4.742075        -1.008951         1.682013
 H         4.313080         1.221513         0.955954
 H         4.457876        -1.009576        -0.642322
