19
Iteration:  4167charge 0 multiplicity 1
 C         0.189250         0.065252        -0.338050
 C         1.421077        -0.177954         0.402290
 C         1.230666        -0.742792         1.792756
 C         2.662483        -1.221617         2.446401
 C         3.709162        -0.915962         1.487864
 C         3.602555         0.375944         0.678806
 O         2.330601         0.994436         0.504949
 C         3.571843        -1.006860        -0.056271
 O         2.208661        -1.081018        -0.542420
 H        -0.316473         0.945044         0.092179
 H         0.401295         0.198617        -1.375998
 H        -0.525616        -0.737135        -0.110259
 H         0.889433         0.139676         2.447384
 H         0.467653        -1.553109         1.880139
 H         2.809755        -0.547000         3.348359
 H         2.535419        -2.201502         2.887001
 H         4.718367        -1.127744         1.800589
 H         4.553495         0.922824         0.536782
 H         4.251984        -1.223444        -0.795867
