19
Iteration:   265charge 0 multiplicity 1
 C         0.075506         0.059537        -0.244743
 C         1.495138        -0.311919         0.326368
 C         1.243254        -1.114070         1.563279
 C         2.598289        -1.191566         2.293135
 C         3.774900        -0.903619         1.416470
 C         3.632383         0.494402         0.720302
 O         2.248798         0.943540         0.896199
 C         3.602354        -0.810271        -0.019282
 O         2.307579        -0.863381        -0.623678
 H        -0.434216         0.673168         0.470067
 H         0.240539         0.632909        -1.156271
 H        -0.529241        -0.883284        -0.350973
 H         0.397410        -0.587415         2.112158
 H         0.734225        -2.089116         1.422982
 H         2.512884        -0.477985         3.115465
 H         2.734278        -2.115157         2.920146
 H         4.845648        -1.322354         1.574137
 H         4.312280         1.262738         0.707577
 H         4.285313        -1.094681        -0.756422
