19
Iteration:  4001
 C         0.125595         0.292072        -0.347725
 C         1.437255        -0.126374         0.343816
 C         1.315058        -1.024012         1.750353
 C         2.600548        -1.066491         2.549517
 C         3.763709        -0.847065         1.529676
 C         3.625634         0.340221         0.560574
 O         2.357978         0.913436         0.526501
 C         3.535039        -1.011140        -0.029164
 O         2.174605        -1.130137        -0.496130
 H        -0.316496         1.068344         0.245207
 H         0.250684         0.696597        -1.370834
 H        -0.647119        -0.445719        -0.307336
 H         0.561110        -0.569379         2.327207
 H         1.062023        -2.084423         1.514934
 H         2.533223        -0.281243         3.306083
 H         2.731127        -2.081873         3.019087
 H         4.794657        -1.023194         1.867789
 H         4.499191         0.893615         0.469825
 H         4.234646        -1.450291        -0.762297
