19
Iteration:  1585charge 0 multiplicity 1
 C         0.167084         0.244673        -0.344338
 C         1.397268        -0.276621         0.417595
 C         1.256519        -0.907327         1.776510
 C         2.646991        -1.525497         2.154343
 C         3.737300        -0.719012         1.511085
 C         3.516588         0.559126         0.747096
 O         2.195936         0.983728         0.532870
 C         3.623978        -0.838292        -0.052150
 O         2.320310        -1.179270        -0.330582
 H        -0.440371         0.882262         0.360193
 H         0.669748         0.725382        -1.282692
 H        -0.497194        -0.510576        -0.761154
 H         1.018781        -0.154348         2.471769
 H         0.455283        -1.675969         1.818160
 H         3.102830        -1.538984         3.211046
 H         2.905981        -2.483395         1.585986
 H         4.718851        -0.767069         2.090445
 H         4.383390         1.191243         0.635331
 H         4.325608        -1.041711        -0.797785
