19
Iteration:  3440
 C         0.115583         0.129408        -0.369082
 C         1.404863        -0.137294         0.398494
 C         1.231560        -0.845372         1.774508
 C         2.640817        -1.293169         2.390090
 C         3.764136        -0.797820         1.528615
 C         3.635068         0.376252         0.598245
 O         2.333901         0.993398         0.525914
 C         3.589515        -0.928108        -0.046933
 O         2.208118        -1.146067        -0.448548
 H        -0.302302         0.972927         0.273017
 H         0.354073         0.279734        -1.412499
 H        -0.411695        -0.833652        -0.125916
 H         0.760314        -0.139558         2.439478
 H         0.507761        -1.770395         1.739314
 H         2.822403        -0.959429         3.443194
 H         2.564261        -2.384727         2.472414
 H         4.779163        -0.754162         1.927155
 H         4.391520         1.093461         0.568616
 H         4.341552        -1.162846        -0.770735
