19
Iteration:  3624charge 0 multiplicity 1
 C         0.147268         0.134848        -0.359615
 C         1.415148        -0.255610         0.383010
 C         1.334758        -0.675854         1.863888
 C         2.550722        -1.388110         2.233362
 C         3.769311        -0.814667         1.535106
 C         3.494446         0.506384         0.631234
 O         2.237155         0.990891         0.491200
 C         3.630680        -0.949026        -0.024683
 O         2.312591        -1.192009        -0.338935
 H        -0.179660         0.919368         0.309300
 H         0.404354         0.621489        -1.322648
 H        -0.687308        -0.561535        -0.447901
 H         1.068353         0.257762         2.360771
 H         0.494116        -1.361096         2.003416
 H         2.860591        -1.617733         3.281302
 H         2.591588        -2.382699         1.751510
 H         4.822615        -1.188414         1.899003
 H         4.435617         1.228966         0.427999
 H         4.341347        -1.449974        -0.758966
