19
Iteration:  3424charge 0 multiplicity 1
 C         0.133131         0.147453        -0.344992
 C         1.486737        -0.237415         0.409013
 C         1.310307        -0.798910         1.775192
 C         2.594041        -1.393954         2.299352
 C         3.811530        -0.776680         1.515826
 C         3.594750         0.516771         0.595219
 O         2.284175         0.999055         0.467669
 C         3.554868        -0.966391         0.070044
 O         2.166462        -1.131116        -0.335404
 H        -0.453020         0.985745         0.015492
 H         0.461424         0.520744        -1.363682
 H        -0.364296        -0.765495        -0.624462
 H         0.868473        -0.067474         2.549860
 H         0.574229        -1.522522         1.585315
 H         2.723788        -1.123788         3.342857
 H         2.859576        -2.434177         2.049350
 H         4.807385        -1.109413         1.842198
 H         4.336911         1.360200         0.263531
 H         4.205958        -1.674404        -0.522627
