19
Iteration:    17charge 0 multiplicity 1
 C        -0.070040         0.104554        -0.297002
 C         1.420296        -0.233645         0.333420
 C         1.200656        -1.015551         1.634896
 C         2.618178        -1.251678         2.327298
 C         3.854193        -0.933167         1.399337
 C         3.636506         0.440726         0.833989
 O         2.302588         0.953470         0.776630
 C         3.648520        -0.715374        -0.135907
 O         2.329798        -0.999048        -0.556285
 H        -0.696393         0.497802         0.568475
 H        -0.062526         0.852150        -1.143992
 H        -0.375204        -0.964370        -0.385529
 H         0.458857        -0.500888         2.273281
 H         0.742316        -1.992109         1.383266
 H         2.757853        -0.630441         3.237484
 H         2.708893        -2.269861         2.785798
 H         4.825936        -1.337416         1.770117
 H         4.429198         1.207687         0.773445
 H         4.456345        -0.933780        -0.857912
