19
Iteration:  1443charge 0 multiplicity 1
 C         0.172832         0.282887        -0.273869
 C         1.423061        -0.286424         0.388376
 C         1.284297        -1.177193         1.605239
 C         2.612971        -1.109954         2.429488
 C         3.785926        -0.829666         1.414419
 C         3.578294         0.500805         0.699840
 O         2.221573         0.856568         0.761587
 C         3.592851        -0.886181        -0.092802
 O         2.276668        -1.026681        -0.556316
 H        -0.375843         0.941717         0.450700
 H         0.568987         0.615503        -1.240412
 H        -0.534171        -0.567973        -0.428719
 H         0.488454        -0.752087         2.235404
 H         0.916672        -2.195762         1.234838
 H         2.561035        -0.272819         3.107107
 H         2.701906        -2.060044         2.819320
 H         4.788691        -1.104438         1.682741
 H         4.229391         1.379776         0.805942
 H         4.338306        -1.250965        -0.912856
