19
Iteration:  3841
 C         0.239588         0.174153        -0.456188
 C         1.431905        -0.191023         0.505692
 C         1.272693        -0.800423         1.909572
 C         2.604788        -1.428870         2.280638
 C         3.749120        -0.763725         1.463674
 C         3.599381         0.474707         0.520467
 O         2.309431         0.975502         0.475543
 C         3.543544        -0.949895         0.004318
 O         2.142460        -1.122679        -0.288675
 H        -0.267953         1.027417        -0.132274
 H         0.908334         0.323668        -1.339752
 H        -0.330137        -0.693215        -0.679618
 H         1.052315         0.075869         2.655001
 H         0.483668        -1.502223         1.810901
 H         2.787320        -1.269492         3.339373
 H         2.711722        -2.456226         2.036810
 H         4.726374        -1.000506         1.906885
 H         4.419070         1.134043         0.525006
 H         4.038221        -1.516562        -0.761136
