19
Iteration:  3573charge 0 multiplicity 1
 C         0.129634         0.052111        -0.325028
 C         1.463197        -0.219701         0.344822
 C         1.247431        -0.816263         1.806296
 C         2.583560        -1.229437         2.353928
 C         3.798586        -0.906630         1.466082
 C         3.632932         0.451982         0.604623
 O         2.318364         1.035447         0.583117
 C         3.546460        -0.938253         0.026544
 O         2.182987        -1.105878        -0.475748
 H        -0.547389         0.674368         0.253353
 H         0.545821         0.771447        -1.149253
 H        -0.339139        -0.833596        -0.773579
 H         0.640700        -0.137313         2.364371
 H         0.540389        -1.777669         1.777256
 H         2.987511        -0.772543         3.248856
 H         2.625895        -2.292165         2.603654
 H         4.861337        -0.916612         1.766340
 H         4.622950         1.016727         0.646961
 H         4.273103        -1.384897        -0.699855
