19
Iteration:  1927charge 0 multiplicity 1
 C         0.176211         0.282908        -0.195972
 C         1.410669        -0.212637         0.347894
 C         1.263771        -1.321776         1.625159
 C         2.548461        -1.144770         2.359222
 C         3.671716        -0.825492         1.447133
 C         3.586707         0.468455         0.702273
 O         2.288652         0.921162         0.649948
 C         3.618424        -0.817008        -0.028837
 O         2.308665        -1.063746        -0.528433
 H        -0.299700         0.946020         0.479893
 H         0.365104         0.991766        -1.012975
 H        -0.522304        -0.467563        -0.426644
 H         0.362799        -1.128826         2.179863
 H         1.386186        -2.250230         0.945996
 H         2.561181        -0.279478         3.039129
 H         2.884345        -1.938218         3.035256
 H         4.691498        -1.010400         1.883845
 H         4.368711         1.337470         0.566336
 H         4.389601        -1.134901        -0.634094
