19
Iteration:  1246
 C         0.174793         0.300101        -0.306843
 C         1.458876        -0.315689         0.358052
 C         1.319670        -1.165137         1.638385
 C         2.630316        -1.279954         2.377049
 C         3.750093        -0.752379         1.518280
 C         3.584048         0.541512         0.626677
 O         2.226707         0.928029         0.750640
 C         3.563079        -0.841626        -0.004631
 O         2.224645        -1.051151        -0.567373
 H        -0.384152         1.062441         0.281347
 H         0.456909         0.923360        -1.160093
 H        -0.326765        -0.646454        -0.654907
 H         0.512845        -0.902486         2.322720
 H         0.938874        -2.222288         1.387531
 H         2.547693        -0.790143         3.394242
 H         2.885190        -2.418449         2.519328
 H         4.774418        -0.928577         1.779027
 H         4.398197         1.248830         0.463972
 H         4.259351        -1.250497        -0.662108
