19
Iteration:  2366charge 0 multiplicity 1
 C         0.269368         0.307078        -0.387194
 C         1.402097        -0.303695         0.421772
 C         1.277693        -1.161291         1.636248
 C         2.626183        -1.051756         2.359378
 C         3.807970        -0.834516         1.476641
 C         3.577232         0.429056         0.649046
 O         2.238050         0.853755         0.814870
 C         3.496086        -0.879469        -0.085968
 O         2.231332        -1.057198        -0.516719
 H        -0.145874         1.217121         0.047547
 H         0.466045         0.624735        -1.400156
 H        -0.569675        -0.445580        -0.535077
 H         0.653840        -0.754492         2.384990
 H         0.931345        -2.177267         1.529513
 H         2.511659        -0.173850         2.921456
 H         2.899385        -1.928079         3.071327
 H         4.829611        -1.183821         1.825630
 H         4.259136         1.218369         0.561865
 H         4.229800        -1.267806        -0.926592
