19
Iteration:  4905
 C         0.134128         0.197856        -0.240294
 C         1.441604        -0.227246         0.334309
 C         1.193944        -0.965799         1.755610
 C         2.539623        -1.168179         2.414911
 C         3.761294        -0.702160         1.489019
 C         3.716264         0.407834         0.589521
 O         2.429547         1.000827         0.533358
 C         3.547768        -0.983348        -0.007234
 O         2.173679        -1.192582        -0.485786
 H        -0.023775         1.166330         0.264112
 H         0.218277         0.587400        -1.306059
 H        -0.660544        -0.555734        -0.093711
 H         0.472077        -0.423761         2.511977
 H         0.636170        -1.884726         1.608800
 H         2.700328        -0.712732         3.412797
 H         2.595751        -2.197849         2.494748
 H         4.700844        -1.169462         1.846545
 H         4.457407         1.094973         0.282184
 H         4.298009        -1.598760        -0.732068
