19
Iteration:  2991charge 0 multiplicity 1
 C         0.063593         0.127722        -0.216125
 C         1.436357        -0.146102         0.357805
 C         1.281188        -0.836897         1.684938
 C         2.593830        -1.256729         2.370312
 C         3.782922        -0.804525         1.498614
 C         3.631762         0.457991         0.731736
 O         2.315235         0.927339         0.482377
 C         3.587595        -0.947386         0.015929
 O         2.263969        -1.081409        -0.489906
 H        -0.672683         0.349267         0.533657
 H         0.168559         0.795604        -1.123192
 H        -0.261696        -0.813207        -0.671770
 H         0.458483        -0.385476         2.259782
 H         0.845287        -1.931829         1.593282
 H         2.706503        -1.005476         3.391125
 H         2.593214        -2.367629         2.239497
 H         4.680770        -1.298982         1.929516
 H         4.266924         1.219530         0.362904
 H         4.482596        -1.272756        -0.630246
