19
Iteration:  2319charge 0 multiplicity 1
 C         0.169951         0.102505        -0.196718
 C         1.500789        -0.202786         0.350884
 C         1.264501        -1.009209         1.576453
 C         2.594173        -1.256760         2.454565
 C         3.730617        -0.826721         1.516444
 C         3.607352         0.446928         0.689995
 O         2.303959         0.947615         0.635835
 C         3.567136        -0.949071         0.003651
 O         2.216630        -0.958056        -0.627049
 H        -0.403014         0.821829         0.397457
 H         0.141967         0.579528        -1.165902
 H        -0.394331        -0.793667        -0.388338
 H         0.658787        -0.339833         2.156715
 H         0.701545        -1.865126         1.453356
 H         2.588210        -0.630471         3.265201
 H         2.708483        -2.279966         2.764793
 H         4.729758        -0.976135         1.838115
 H         4.386556         1.244531         0.397537
 H         4.397987        -1.305556        -0.522156
