19
Iteration:  4629charge 0 multiplicity 1
 C         0.190389         0.150808        -0.432426
 C         1.459849        -0.148850         0.384536
 C         1.320368        -0.861895         1.794255
 C         2.678105        -1.176305         2.551417
 C         3.714932        -0.915703         1.513074
 C         3.612289         0.338643         0.587780
 O         2.400354         1.011304         0.506079
 C         3.464258        -0.960589        -0.000957
 O         2.125229        -1.058924        -0.467766
 H        -0.587542         0.781838         0.117121
 H         0.306099         0.568430        -1.404252
 H        -0.376173        -0.820253        -0.540325
 H         0.551754        -0.388260         2.502815
 H         1.024986        -1.753148         1.391625
 H         2.704290        -0.707501         3.631868
 H         2.539926        -2.217395         2.647249
 H         4.703534        -1.388057         1.677350
 H         4.383385         1.101182         0.469917
 H         4.118818        -1.576046        -0.793941
