19
Iteration:  1424
 C         0.107818         0.097114        -0.284368
 C         1.452678        -0.204091         0.348534
 C         1.283692        -1.058245         1.682657
 C         2.626518        -1.168456         2.412702
 C         3.741632        -0.983856         1.391718
 C         3.619616         0.367510         0.788260
 O         2.246261         0.962398         0.669610
 C         3.600908        -0.748560        -0.054176
 O         2.262123        -0.949745        -0.592822
 H        -0.333500         0.809646         0.438422
 H         0.208768         0.454129        -1.351926
 H        -0.612106        -0.700034        -0.305241
 H         0.476429        -0.744884         2.338583
 H         1.050035        -2.130253         1.255802
 H         2.770944        -0.324631         3.075438
 H         2.678535        -2.113435         3.039169
 H         4.714203        -1.222772         1.935360
 H         4.356470         1.135500         0.719007
 H         4.419636        -1.033362        -0.717131
