19
Iteration:  2594charge 0 multiplicity 1
 C         0.174884         0.211787        -0.312452
 C         1.426430        -0.226062         0.349225
 C         1.257451        -1.144899         1.608097
 C         2.596812        -1.063112         2.469684
 C         3.786665        -0.798660         1.443838
 C         3.599692         0.400126         0.593070
 O         2.348539         0.919563         0.770749
 C         3.497475        -0.960695        -0.025892
 O         2.210992        -0.998263        -0.544440
 H        -0.305452         0.897037         0.350711
 H         0.407109         0.626458        -1.312385
 H        -0.474502        -0.595722        -0.491867
 H         0.430312        -0.991776         2.262636
 H         1.284395        -2.204682         1.335336
 H         2.725637        -0.239274         3.247435
 H         2.679515        -2.063314         2.919137
 H         4.772863        -0.927533         1.902578
 H         4.389995         1.192417         0.384356
 H         4.121251        -1.508649        -0.640171
