19
Iteration:  3925
 C         0.174805         0.113805        -0.329576
 C         1.475863        -0.150736         0.357936
 C         1.301489        -0.821068         1.750657
 C         2.647409        -1.201083         2.435822
 C         3.704354        -0.908363         1.504187
 C         3.632146         0.357271         0.656772
 O         2.352869         0.970649         0.521708
 C         3.520030        -0.987768        -0.030795
 O         2.147036        -1.003116        -0.474388
 H        -0.643180         0.637995         0.190299
 H         0.244446         0.532617        -1.399367
 H        -0.177489        -0.934049        -0.454656
 H         0.767904        -0.230691         2.442982
 H         0.620858        -1.681686         1.511263
 H         2.854574        -0.468986         3.275984
 H         2.583371        -2.257952         2.902166
 H         4.733457        -1.138319         1.869006
 H         4.568419         0.843461         0.506351
 H         4.034786        -1.655549        -0.659885
