19
Iteration:  4405
 C         0.167968         0.089079        -0.320277
 C         1.426704        -0.255285         0.383630
 C         1.216247        -0.593920         1.869267
 C         2.573192        -1.298300         2.472887
 C         3.809303        -0.895971         1.458035
 C         3.620954         0.410169         0.608694
 O         2.290137         0.955748         0.464863
 C         3.586030        -1.006452         0.032983
 O         2.249134        -1.071627        -0.571137
 H        -0.556638         0.700745         0.343555
 H         0.425455         0.626052        -1.208459
 H        -0.403365        -0.853246        -0.615955
 H         1.087916         0.234128         2.409746
 H         0.364226        -1.266561         2.291709
 H         2.645020        -1.066855         3.528035
 H         2.496856        -2.461275         2.410391
 H         4.844276        -1.201372         1.750182
 H         4.405698         1.160364         0.563400
 H         4.316528        -1.464262        -0.759541
