19
Iteration:   942
 C         0.179352         0.106630        -0.364566
 C         1.434112        -0.331804         0.362668
 C         1.318522        -1.012251         1.705439
 C         2.686841        -1.383569         2.365296
 C         3.729404        -0.848702         1.496814
 C         3.494752         0.424148         0.775657
 O         2.194501         0.941252         0.702726
 C         3.572747        -0.740409        -0.091185
 O         2.297504        -0.869502        -0.590579
 H        -0.480584         0.622319         0.319345
 H         0.498558         0.897928        -1.082023
 H        -0.245282        -0.829578        -0.805288
 H         0.607407        -0.421245         2.339896
 H         0.626401        -1.940753         1.676706
 H         2.749584        -0.879458         3.303237
 H         2.989669        -2.363968         2.548391
 H         4.823113        -0.966392         1.677683
 H         4.243337         1.121974         0.971309
 H         4.381338        -1.007841        -0.663522
