19
Iteration:  4674charge 0 multiplicity 1
 C         0.140996         0.247474        -0.248883
 C         1.474777        -0.267758         0.302858
 C         1.171298        -0.740683         1.786203
 C         2.561960        -1.224258         2.353873
 C         3.770715        -0.847370         1.507044
 C         3.732976         0.427473         0.548793
 O         2.296000         0.882185         0.561930
 C         3.595758        -0.901163        -0.017830
 O         2.220764        -1.268508        -0.439373
 H        -0.188544         1.162010         0.296798
 H         0.286374         0.753254        -1.201621
 H        -0.706038        -0.465840        -0.342620
 H         0.605187         0.200289         2.079431
 H         0.691816        -1.611468         1.792562
 H         2.680742        -0.886326         3.479697
 H         2.540043        -2.291104         2.396987
 H         4.783410        -0.945564         1.914786
 H         4.433103         1.262236         0.585468
 H         4.284191        -1.389163        -0.665739
