19
Iteration:  1895
 C         0.134997         0.094053        -0.338692
 C         1.447364        -0.263224         0.341176
 C         1.302553        -1.071446         1.631106
 C         2.622283        -1.112823         2.432174
 C         3.764293        -0.867456         1.457231
 C         3.600348         0.370676         0.726226
 O         2.297261         0.835632         0.811739
 C         3.537147        -0.825014        -0.048132
 O         2.226634        -0.868589        -0.600448
 H        -0.379391         0.821885         0.275089
 H         0.467359         0.619015        -1.299850
 H        -0.436084        -0.731704        -0.695176
 H         0.414580        -0.741810         2.070221
 H         0.960038        -2.071523         1.167224
 H         2.805763        -0.292999         3.197580
 H         2.665161        -2.070658         2.953593
 H         4.765528        -1.144812         1.873485
 H         4.234709         1.300121         0.469278
 H         4.270062        -1.111861        -0.715193
