19
Iteration:  1794
 C         0.192784         0.073565        -0.320823
 C         1.417241        -0.169859         0.421352
 C         1.295102        -0.764263         1.808788
 C         2.611376        -1.565228         2.203727
 C         3.770836        -0.838775         1.461943
 C         3.507386         0.500549         0.830095
 O         2.201781         0.955202         0.501200
 C         3.622041        -0.730496         0.000934
 O         2.323505        -1.092056        -0.467794
 H        -0.459849         0.665414         0.350936
 H         0.523758         0.598595        -1.160448
 H        -0.336175        -0.921138        -0.512351
 H         0.972851         0.000684         2.610273
 H         0.330771        -1.386033         1.790623
 H         2.751052        -1.629388         3.294157
 H         2.513040        -2.558835         1.655353
 H         4.785762        -0.961640         1.756087
 H         4.149813         1.315372         0.707529
 H         4.421880        -1.051737        -0.814186
