19
Iteration:   459charge 0 multiplicity 1
 C         0.140027         0.191511        -0.302841
 C         1.461211        -0.286361         0.332613
 C         1.332083        -1.046061         1.671067
 C         2.615209        -1.483255         2.295090
 C         3.816208        -0.746731         1.517101
 C         3.492950         0.548122         0.749465
 O         2.137472         0.914611         0.719672
 C         3.652147        -0.793212         0.000837
 O         2.295550        -0.977021        -0.596083
 H        -0.398757         0.958366         0.239997
 H         0.488409         0.626222        -1.250694
 H        -0.523185        -0.687487        -0.425418
 H         0.981959        -0.300039         2.367928
 H         0.666358        -1.883518         1.562864
 H         2.502542        -1.224769         3.329476
 H         2.842729        -2.542628         2.017246
 H         4.833007        -1.113585         2.051499
 H         4.121238         1.426499         0.695703
 H         4.494136        -0.921872        -0.641906
