19
Iteration:   638charge 0 multiplicity 1
 C         0.186007         0.025952        -0.366199
 C         1.468572        -0.165577         0.401700
 C         1.294424        -0.958933         1.752102
 C         2.639918        -1.620861         2.163903
 C         3.811132        -0.889472         1.489216
 C         3.466298         0.544524         0.776864
 O         2.112761         1.098827         0.584006
 C         3.655541        -0.669059        -0.020195
 O         2.326738        -1.041749        -0.411010
 H        -0.479580         0.758915         0.121405
 H         0.337508         0.648331        -1.232036
 H        -0.460572        -0.800334        -0.568379
 H         1.021733        -0.170795         2.572978
 H         0.518551        -1.840220         1.831280
 H         2.784433        -1.691200         3.257701
 H         2.580126        -2.708353         1.920798
 H         4.709025        -0.887011         1.948331
 H         4.320541         1.240077         0.932914
 H         4.430186        -0.709482        -0.836787
