19
Iteration:  1884charge 0 multiplicity 1
 C         0.149135         0.115939        -0.398839
 C         1.457872        -0.268320         0.379489
 C         1.249225        -1.036221         1.717881
 C         2.645613        -1.154290         2.426777
 C         3.747144        -0.924118         1.481586
 C         3.585283         0.457926         0.712142
 O         2.249509         0.867388         0.802680
 C         3.569266        -0.834066        -0.085100
 O         2.262595        -0.877672        -0.678028
 H        -0.556643         0.680618         0.212051
 H         0.334312         0.620981        -1.396964
 H        -0.345858        -0.837002        -0.473572
 H         0.616905        -0.505536         2.384314
 H         0.949570        -2.123430         1.663104
 H         2.651467        -0.528028         3.370961
 H         2.813369        -2.191915         2.714388
 H         4.760555        -1.256171         1.817061
 H         4.437573         1.228817         0.623664
 H         4.358533        -1.254872        -0.634880
