19
Iteration:  4509charge 0 multiplicity 1
 C         0.074765         0.158137        -0.312780
 C         1.455403        -0.216876         0.404042
 C         1.164561        -0.774252         1.746882
 C         2.590813        -1.062185         2.393930
 C         3.792434        -0.946248         1.401650
 C         3.659767         0.347549         0.666034
 O         2.354593         0.850526         0.579332
 C         3.572717        -1.011348        -0.068879
 O         2.249157        -1.056270        -0.478193
 H        -0.327306         1.046273         0.161689
 H         0.263232         0.352897        -1.370240
 H        -0.553694        -0.715142        -0.131545
 H         0.647393         0.088202         2.342223
 H         0.638814        -1.649372         1.660875
 H         2.786974        -0.285009         3.229475
 H         2.793944        -2.009690         2.826501
 H         4.649316        -1.179643         2.018260
 H         4.467556         1.077603         0.783212
 H         4.307960        -1.433614        -0.830655
