19
Iteration:  1051charge 0 multiplicity 1
 C         0.079368         0.061494        -0.257127
 C         1.464714        -0.181745         0.388496
 C         1.273427        -1.021489         1.634597
 C         2.577636        -1.348079         2.327633
 C         3.751699        -0.864651         1.447149
 C         3.633383         0.488303         0.784090
 O         2.255039         0.972643         0.677433
 C         3.579461        -0.748280        -0.034797
 O         2.326403        -0.983208        -0.569835
 H        -0.585162         0.646026         0.381434
 H         0.191922         0.446248        -1.279752
 H        -0.428830        -0.909180        -0.462301
 H         0.603373        -0.395751         2.319165
 H         0.704638        -1.993236         1.318331
 H         2.630998        -1.081666         3.411224
 H         2.834210        -2.479051         2.331019
 H         4.739266        -1.069864         1.966465
 H         4.339191         1.280914         0.659266
 H         4.412072        -0.948559        -0.762596
