19
Iteration:   815charge 0 multiplicity 1
 C         0.167580         0.097236        -0.289214
 C         1.465543        -0.228971         0.366959
 C         1.224299        -1.170554         1.607457
 C         2.578956        -1.373843         2.268760
 C         3.768440        -0.703470         1.577135
 C         3.606901         0.459965         0.699071
 O         2.260273         1.009561         0.790953
 C         3.601946        -0.762051        -0.080539
 O         2.267190        -0.955061        -0.570027
 H        -0.396833         0.715429         0.397383
 H         0.210224         0.365517        -1.369340
 H        -0.489446        -0.803315        -0.470973
 H         0.609258        -0.542665         2.292318
 H         0.761388        -2.132475         1.378119
 H         2.633697        -1.026278         3.372424
 H         2.896922        -2.498397         2.297476
 H         4.850324        -0.875759         1.942661
 H         4.309036         1.215112         0.689190
 H         4.270736        -1.152843        -0.772730
