19
Iteration:  3450
 C         0.136518         0.112952        -0.304222
 C         1.490136        -0.209564         0.393543
 C         1.236667        -0.827888         1.787560
 C         2.586093        -1.176810         2.434352
 C         3.749124        -0.876757         1.463885
 C         3.590334         0.378949         0.701230
 O         2.317436         0.947463         0.539223
 C         3.534611        -0.924697        -0.129949
 O         2.293590        -1.110598        -0.482519
 H        -0.267011         1.107134         0.099710
 H         0.158229         0.314120        -1.349240
 H        -0.633874        -0.724913        -0.202556
 H         0.665170        -0.118548         2.421809
 H         0.546851        -1.768088         1.588813
 H         2.822548        -0.670020         3.378687
 H         2.780600        -2.228526         2.502444
 H         4.717506        -1.005030         1.955236
 H         4.313437         1.066650         0.480377
 H         4.300042        -1.135067        -0.856719
