19
Iteration:  2303
 C         0.060250         0.156509        -0.225292
 C         1.466637        -0.270389         0.261637
 C         1.233779        -0.929632         1.781812
 C         2.562755        -1.313432         2.343173
 C         3.764592        -0.813774         1.551652
 C         3.622743         0.444206         0.623042
 O         2.265180         0.956369         0.570912
 C         3.612802        -0.874541         0.027610
 O         2.365263        -1.001406        -0.577158
 H        -0.332931         0.686125         0.661771
 H         0.165764         0.879566        -1.062675
 H        -0.532778        -0.788434        -0.327771
 H         0.590981        -0.228210         2.404887
 H         0.575516        -1.844167         1.464861
 H         2.601665        -1.009346         3.487159
 H         2.601963        -2.431680         2.397433
 H         4.758544        -1.175668         1.947369
 H         4.355910         1.167370         0.573638
 H         4.309754        -1.372108        -0.734239
