19
Iteration:  3929charge 0 multiplicity 1
 C         0.183530         0.137663        -0.358606
 C         1.485272        -0.155667         0.358373
 C         1.259782        -0.878781         1.743640
 C         2.659921        -1.162235         2.412977
 C         3.741554        -0.922843         1.474404
 C         3.645964         0.362687         0.663865
 O         2.360416         0.970440         0.539303
 C         3.483472        -0.993050        -0.004373
 O         2.149757        -1.019097        -0.429371
 H        -0.576587         0.630469         0.207283
 H         0.144743         0.437360        -1.426770
 H        -0.307331        -0.828480        -0.518792
 H         0.793602        -0.176022         2.534458
 H         0.667766        -1.691690         1.421975
 H         2.874458        -0.395013         3.166211
 H         2.557908        -2.109837         2.825452
 H         4.704969        -1.227514         1.853382
 H         4.485392         1.084001         0.527508
 H         4.038752        -1.649214        -0.748334
