19
Iteration:  2039charge 0 multiplicity 1
 C         0.152421         0.167465        -0.350884
 C         1.444622        -0.249903         0.394080
 C         1.274972        -0.822384         1.818179
 C         2.606216        -1.579356         2.143460
 C         3.764287        -0.725764         1.546478
 C         3.476603         0.515192         0.717515
 O         2.211097         0.914255         0.529040
 C         3.628749        -0.816794         0.064334
 O         2.347807        -1.082006        -0.438226
 H        -0.416609         0.811392         0.344107
 H         0.474886         0.894933        -1.118457
 H        -0.378695        -0.677582        -0.779682
 H         1.272904         0.062850         2.414015
 H         0.423711        -1.504972         2.174492
 H         2.681489        -1.688586         3.266696
 H         2.736665        -2.540861         1.724624
 H         4.698159        -1.005969         2.048749
 H         4.130937         1.276228         0.423940
 H         4.316818        -0.862693        -0.863646
