19
Iteration:  4451
 C         0.190468         0.268721        -0.388387
 C         1.403576        -0.110362         0.445742
 C         1.251101        -0.870362         1.847736
 C         2.598699        -1.323874         2.353156
 C         3.842324        -0.822975         1.489218
 C         3.660736         0.425647         0.505092
 O         2.291644         0.988853         0.396584
 C         3.550494        -0.988238         0.054568
 O         2.200692        -1.180278        -0.279641
 H        -0.552149         0.890977         0.133750
 H         0.422692         0.797685        -1.372067
 H        -0.462243        -0.555821        -0.712554
 H         0.559192        -0.438841         2.501833
 H         0.552871        -1.672560         1.489300
 H         2.711913        -1.010519         3.436052
 H         2.726191        -2.445466         2.333558
 H         4.662958        -1.122847         2.121646
 H         4.391668         1.156756         0.173268
 H         4.202043        -1.532469        -0.574435
