19
Iteration:  1526charge 0 multiplicity 1
 C         0.110901        -0.034778        -0.312368
 C         1.456101        -0.217920         0.354631
 C         1.238602        -0.847607         1.742196
 C         2.608834        -1.358329         2.296708
 C         3.761895        -0.846944         1.462739
 C         3.649558         0.455905         0.739619
 O         2.256387         0.953264         0.728114
 C         3.582524        -0.806063        -0.068102
 O         2.316540        -0.914184        -0.598574
 H        -0.616872         0.467516         0.317485
 H        -0.023420         0.508187        -1.192868
 H        -0.177252        -1.113466        -0.420456
 H         0.751140        -0.068352         2.460465
 H         0.509149        -1.596624         1.568123
 H         2.822104        -1.084847         3.378197
 H         2.577732        -2.510654         2.426248
 H         4.641418        -1.250986         1.906015
 H         4.319963         1.361998         0.738880
 H         4.192235        -1.512927        -0.758946
