19
Iteration:  4289charge 0 multiplicity 1
 C         0.126700         0.130910        -0.336313
 C         1.410753        -0.136711         0.373500
 C         1.211231        -0.846795         1.758705
 C         2.595113        -1.073909         2.466345
 C         3.713922        -0.896642         1.456048
 C         3.743336         0.324480         0.649672
 O         2.417861         0.967310         0.551840
 C         3.521948        -0.952753        -0.104778
 O         2.182397        -1.138620        -0.481043
 H        -0.446971         0.875551         0.248314
 H         0.437366         0.294748        -1.327549
 H        -0.317840        -0.885095        -0.189397
 H         0.437631        -0.277077         2.536272
 H         0.668505        -1.719175         1.463846
 H         2.619644        -0.437747         3.401835
 H         2.812893        -1.994429         2.960066
 H         4.687984        -1.189643         1.921002
 H         4.478783         1.116407         0.491604
 H         4.202137        -1.678742        -0.719491
