19
Iteration:  4441
 C         0.120966         0.215744        -0.344896
 C         1.455796        -0.145340         0.375319
 C         1.162295        -0.834666         1.782252
 C         2.602522        -1.343509         2.356111
 C         3.835814        -0.844458         1.573607
 C         3.652102         0.453643         0.520522
 O         2.360407         1.057367         0.430973
 C         3.560101        -0.988769        -0.032165
 O         2.200658        -1.249768        -0.261488
 H        -0.472269         0.821465         0.320041
 H         0.417458         0.858210        -1.247780
 H        -0.368479        -0.697278        -0.669643
 H         0.659915        -0.025163         2.413146
 H         0.505880        -1.661211         1.580332
 H         2.809882        -1.004601         3.424044
 H         2.505118        -2.428463         2.376286
 H         4.849814        -0.917308         1.934958
 H         4.397599         1.231253         0.309471
 H         4.103847        -1.309107        -0.834445
