19
Iteration:  4444
 C         0.138886         0.229724        -0.354621
 C         1.438669        -0.128250         0.385141
 C         1.192314        -0.869964         1.809068
 C         2.602496        -1.345659         2.355447
 C         3.849147        -0.845161         1.566026
 C         3.665491         0.456675         0.509556
 O         2.342687         1.050879         0.419514
 C         3.544388        -0.995648        -0.011638
 O         2.206685        -1.235692        -0.261364
 H        -0.515788         0.830542         0.242596
 H         0.391641         0.820344        -1.265690
 H        -0.422499        -0.621329        -0.709778
 H         0.497566        -0.052256         2.435691
 H         0.463561        -1.591959         1.529592
 H         2.829907        -1.005044         3.396545
 H         2.529287        -2.401332         2.364006
 H         4.824864        -0.982365         2.056726
 H         4.360918         1.278918         0.241894
 H         4.136878        -1.397970        -0.841609
