19
Iteration:  4272
 C         0.163965         0.015924        -0.247515
 C         1.520054        -0.135216         0.388290
 C         1.178230        -0.827325         1.714924
 C         2.523066        -1.001429         2.373611
 C         3.729196        -0.924169         1.458041
 C         3.716797         0.377637         0.547011
 O         2.440034         0.951339         0.629863
 C         3.507016        -1.034113        -0.011584
 O         2.175172        -1.056442        -0.458534
 H        -0.517514         0.732323         0.182924
 H         0.093252         0.467005        -1.350288
 H        -0.416672        -0.887145        -0.363930
 H         0.485468        -0.213566         2.137005
 H         0.867636        -1.892566         1.449004
 H         2.675600        -0.272864         3.193774
 H         2.565729        -2.054168         2.912710
 H         4.614032        -1.446284         1.768364
 H         4.619089         0.971245         0.421491
 H         4.173687        -1.429346        -0.678905
