19
Iteration:  4623charge 0 multiplicity 1
 C         0.160234         0.146436        -0.431727
 C         1.482511        -0.153889         0.368144
 C         1.304346        -0.878753         1.828237
 C         2.640153        -1.143452         2.521459
 C         3.746714        -0.892713         1.522873
 C         3.635096         0.361464         0.638832
 O         2.414239         0.974317         0.532715
 C         3.425963        -0.981558        -0.066164
 O         2.136171        -1.053282        -0.440424
 H        -0.511503         0.858819        -0.006378
 H         0.326694         0.655138        -1.428361
 H        -0.320226        -0.790150        -0.658878
 H         0.529078        -0.353252         2.351129
 H         0.977414        -1.946537         1.451163
 H         2.698041        -0.655117         3.484756
 H         2.736662        -2.275587         2.778328
 H         4.684636        -1.418567         1.641880
 H         4.385173         1.037232         0.190180
 H         4.007312        -1.388112        -0.770273
