19
Iteration:  1461
 C         0.245361         0.328745        -0.317294
 C         1.451845        -0.319192         0.369878
 C         1.261149        -1.228917         1.630858
 C         2.644860        -1.201981         2.333320
 C         3.822984        -0.733151         1.595048
 C         3.559613         0.505285         0.584960
 O         2.219582         0.884855         0.784246
 C         3.512058        -0.847610        -0.043202
 O         2.200887        -1.077490        -0.557234
 H        -0.195234         0.987080         0.442195
 H         0.598707         0.992337        -1.081700
 H        -0.551474        -0.408410        -0.594322
 H         0.356086        -0.942224         2.234739
 H         1.049016        -2.168367         1.302596
 H         2.511964        -0.370161         3.137824
 H         3.041493        -2.201929         2.827507
 H         4.836389        -0.891928         1.893217
 H         4.341237         1.166396         0.136277
 H         4.362089        -1.178486        -0.685350
