19
Iteration:  1692
 C         0.146866         0.326859        -0.234742
 C         1.449842        -0.277078         0.389559
 C         1.265715        -1.245110         1.571590
 C         2.576636        -1.106021         2.434603
 C         3.798649        -0.759257         1.462734
 C         3.574236         0.420775         0.696403
 O         2.239269         0.856271         0.704224
 C         3.587443        -0.817012        -0.071701
 O         2.302746        -1.073108        -0.578626
 H        -0.232019         0.937229         0.571377
 H         0.424938         1.081409        -1.009876
 H        -0.482899        -0.492429        -0.436029
 H         0.284270        -1.015743         2.181262
 H         1.137568        -2.198501         1.078916
 H         2.386707        -0.256013         3.130532
 H         2.707098        -2.081074         3.012799
 H         4.822744        -1.047885         1.763686
 H         4.271829         1.217590         0.466073
 H         4.274251        -1.252483        -0.666544
