19
Iteration:   983charge 0 multiplicity 1
 C         0.222709         0.176853        -0.344825
 C         1.424299        -0.249060         0.412628
 C         1.282004        -1.224034         1.525456
 C         2.643046        -1.178608         2.254552
 C         3.782563        -0.848425         1.390644
 C         3.575163         0.491990         0.752513
 O         2.188838         0.930119         0.870707
 C         3.586354        -0.770571        -0.115965
 O         2.264194        -1.015885        -0.408534
 H        -0.332822         0.866568         0.272894
 H         0.515717         0.713226        -1.257774
 H        -0.409989        -0.586308        -0.754939
 H         0.506260        -0.900817         2.231724
 H         0.856076        -2.261327         1.219351
 H         2.641592        -0.444869         3.100762
 H         2.555115        -2.175134         2.832425
 H         4.741756        -1.003902         1.857142
 H         4.329279         1.276927         0.628264
 H         4.212708        -0.944864        -0.930264
