19
Iteration:   329charge 0 multiplicity 1
 C         0.128398         0.281520        -0.281833
 C         1.408755        -0.255908         0.413074
 C         1.311896        -1.326055         1.545481
 C         2.627551        -1.308954         2.355879
 C         3.807540        -0.686591         1.515339
 C         3.577233         0.497491         0.646115
 O         2.206780         0.899478         0.729737
 C         3.569001        -0.846047         0.004394
 O         2.276032        -0.903959        -0.542160
 H        -0.346962         1.021469         0.383213
 H         0.488284         0.742236        -1.201664
 H        -0.510247        -0.606177        -0.534122
 H         0.441571        -1.014542         2.218723
 H         1.054659        -2.336320         1.103782
 H         2.523726        -0.789947         3.441319
 H         2.905574        -2.369021         2.626615
 H         4.895664        -1.047630         1.884024
 H         4.299163         1.215312         0.404500
 H         4.413548        -1.057441        -0.622222
