19
Iteration:  4231
 C         0.222902         0.349898        -0.351803
 C         1.428338        -0.302315         0.357847
 C         1.295804        -0.893389         1.777043
 C         2.683786        -1.078680         2.570823
 C         3.689684        -0.851885         1.474804
 C         3.597082         0.389065         0.605297
 O         2.306296         0.850894         0.461482
 C         3.491772        -0.963085        -0.020522
 O         2.194928        -1.183764        -0.454459
 H        -0.283784         1.003858         0.376858
 H         0.782733         0.957503        -1.054251
 H        -0.384055        -0.378529        -0.910827
 H         0.498434        -0.468138         2.419274
 H         0.783246        -1.907299         1.479320
 H         2.884334        -0.358306         3.289236
 H         2.802247        -2.122060         2.800836
 H         4.668014        -1.227488         1.754400
 H         4.165403         1.311426         0.482632
 H         4.206432        -1.345550        -0.629756
