19
Iteration:  4020charge 0 multiplicity 1
 C         0.182037         0.087565        -0.215931
 C         1.476282        -0.149838         0.398511
 C         1.198481        -0.860041         1.666398
 C         2.579168        -1.072207         2.426510
 C         3.715621        -0.958414         1.464380
 C         3.697169         0.387150         0.630868
 O         2.405455         1.017583         0.512211
 C         3.493009        -1.041093        -0.032095
 O         2.196423        -1.064083        -0.463407
 H        -0.527702         0.690444         0.403491
 H         0.306028         0.460959        -1.186047
 H        -0.337599        -0.907829        -0.252868
 H         0.399789        -0.368554         2.233794
 H         0.849750        -1.915415         1.332229
 H         2.696841        -0.233562         3.063128
 H         2.671134        -2.033647         2.933512
 H         4.687791        -1.287108         1.861079
 H         4.424353         1.161291         0.480273
 H         4.160449        -1.590479        -0.632179
