19
Iteration:  4482charge 0 multiplicity 1
 C         0.252066         0.236120        -0.375897
 C         1.462911        -0.287665         0.369001
 C         1.273875        -0.790723         1.794273
 C         2.599293        -1.202404         2.492780
 C         3.814379        -0.850456         1.457382
 C         3.614413         0.425341         0.603118
 O         2.274955         0.966520         0.574125
 C         3.504616        -0.961858        -0.055718
 O         2.141145        -1.217451        -0.497843
 H        -0.119719         1.066063         0.293900
 H         0.503413         0.683031        -1.359055
 H        -0.536256        -0.555260        -0.447068
 H         0.885084         0.015236         2.310243
 H         0.546930        -1.700621         1.769332
 H         2.643302        -0.674619         3.429709
 H         2.850445        -2.288142         2.709382
 H         4.696074        -1.088378         2.064162
 H         4.444320         1.093038         0.401583
 H         4.223838        -1.417346        -0.732049
