19
Iteration:  3521charge 0 multiplicity 1
 C         0.202434         0.290582        -0.284981
 C         1.463905        -0.261640         0.346860
 C         1.295255        -1.185646         1.695429
 C         2.606904        -1.041569         2.459845
 C         3.724399        -0.794564         1.475044
 C         3.599021         0.382858         0.637574
 O         2.307838         0.989236         0.550696
 C         3.502190        -0.999904        -0.020794
 O         2.189076        -1.093400        -0.454738
 H        -0.244869         0.995430         0.455161
 H         0.533787         0.856399        -1.245601
 H        -0.372974        -0.616070        -0.561322
 H         0.518156        -0.711594         2.345365
 H         0.995167        -2.188583         1.440250
 H         2.544494         0.000486         2.929374
 H         2.845039        -1.806286         3.259467
 H         4.741444        -1.113275         1.576783
 H         4.482846         0.957009         0.295329
 H         4.330179        -1.446299        -0.653426
