19
Iteration:   782charge 0 multiplicity 1
 C         0.126952         0.303417        -0.164908
 C         1.446715        -0.262609         0.286235
 C         1.369506        -1.269033         1.560971
 C         2.610897        -1.290037         2.414011
 C         3.782041        -0.896877         1.508476
 C         3.495457         0.437039         0.815056
 O         2.131225         0.960121         0.568748
 C         3.620125        -0.712664        -0.038336
 O         2.371880        -1.013880        -0.595523
 H        -0.401720         0.869307         0.596342
 H         0.280575         1.195568        -0.803714
 H        -0.636758        -0.459820        -0.455398
 H         0.410269        -0.933465         2.067591
 H         1.293803        -2.304710         1.163178
 H         2.594926        -0.393290         3.132994
 H         2.730999        -2.234571         3.062239
 H         4.853829        -1.003136         1.874267
 H         4.053421         1.297285         0.937331
 H         4.409478        -0.942252        -0.649479
