19
Iteration:   275charge 0 multiplicity 1
 C         0.077887         0.122696        -0.207981
 C         1.365619        -0.288508         0.326535
 C         1.228388        -1.175123         1.543571
 C         2.584337        -1.122202         2.342027
 C         3.855950        -0.972987         1.432999
 C         3.585952         0.470004         0.751139
 O         2.259367         0.859397         0.824534
 C         3.654526        -0.742043        -0.063892
 O         2.330065        -0.868336        -0.627147
 H        -0.326012         0.801275         0.520674
 H        -0.046243         0.635984        -1.119205
 H        -0.682371        -0.662484        -0.276071
 H         0.467209        -0.719603         2.255064
 H         0.968871        -2.184064         1.111559
 H         2.612556        -0.135635         2.938282
 H         2.627486        -2.043765         2.965637
 H         4.935101        -1.309720         1.804785
 H         4.273441         1.253468         0.742885
 H         4.568541        -1.048651        -0.512793
