19
Iteration:  3970charge 0 multiplicity 1
 C         0.337350         0.383475        -0.349276
 C         1.449610        -0.282884         0.365227
 C         1.229583        -1.032531         1.740129
 C         2.609203        -1.020156         2.439778
 C         3.769958        -0.786838         1.458518
 C         3.568289         0.412310         0.539038
 O         2.260850         0.816919         0.643055
 C         3.504671        -1.016285        -0.055567
 O         2.175364        -1.206316        -0.443422
 H         0.193800         1.226014         0.297417
 H         0.656777         0.868682        -1.377519
 H        -0.601937        -0.176940        -0.310275
 H         0.547090        -0.360262         2.278853
 H         0.791991        -2.010538         1.741262
 H         2.530901        -0.137960         3.174404
 H         2.888879        -1.959067         3.010289
 H         4.822226        -0.941693         1.780548
 H         4.336699         1.204805         0.398139
 H         4.281935        -1.439507        -0.758208
