19
Iteration:   699charge 0 multiplicity 1
 C         0.151335         0.126332        -0.322580
 C         1.446130        -0.254640         0.346001
 C         1.281258        -1.054923         1.676206
 C         2.666448        -1.458579         2.332573
 C         3.788264        -0.885807         1.412359
 C         3.513397         0.548376         0.822298
 O         2.139128         0.923808         0.674248
 C         3.615396        -0.715268        -0.023821
 O         2.324749        -0.948534        -0.542654
 H        -0.313484         0.788021         0.412226
 H         0.503472         0.638234        -1.228429
 H        -0.449852        -0.715778        -0.657075
 H         0.718451        -0.339233         2.248618
 H         0.681903        -1.963877         1.550969
 H         2.757908        -0.912464         3.264371
 H         2.742985        -2.510881         2.535132
 H         4.863255        -0.967774         1.780592
 H         4.108029         1.418098         0.801351
 H         4.473286        -0.759661        -0.646250
