19
Iteration:  4278
 C         0.166589         0.051951        -0.295742
 C         1.495678        -0.142576         0.421983
 C         1.179598        -0.833673         1.737336
 C         2.515843        -0.992984         2.382267
 C         3.705157        -0.897108         1.428292
 C         3.797941         0.364964         0.595798
 O         2.435420         0.961359         0.608476
 C         3.485681        -0.997261        -0.013300
 O         2.168513        -1.107037        -0.485032
 H        -0.518859         0.736795         0.258472
 H         0.075752         0.291960        -1.314996
 H        -0.302956        -0.963389        -0.200747
 H         0.330415        -0.390786         2.480930
 H         0.894624        -1.830549         1.509565
 H         2.789737        -0.309820         3.224827
 H         2.393267        -2.006604         2.626714
 H         4.617177        -1.488469         1.660759
 H         4.634791         1.057640         0.450242
 H         4.328017        -1.455242        -0.666946
