19
Iteration:  1356
 C         0.240948         0.276125        -0.353954
 C         1.419360        -0.239013         0.416038
 C         1.287653        -0.874759         1.722066
 C         2.685097        -1.466075         2.195449
 C         3.754219        -0.806724         1.435721
 C         3.467511         0.508846         0.742114
 O         2.158678         0.917983         0.566630
 C         3.660352        -0.732565        -0.051578
 O         2.274961        -1.214484        -0.319068
 H        -0.433412         0.858043         0.382250
 H         0.509587         0.850769        -1.243058
 H        -0.452668        -0.475794        -0.844333
 H         1.041015        -0.235176         2.564167
 H         0.547118        -1.833268         1.732868
 H         2.708048        -1.412040         3.271854
 H         2.734572        -2.557067         2.242034
 H         4.661904        -0.793958         1.924241
 H         4.221925         1.313499         0.713973
 H         4.397321        -1.020203        -0.888666
