19
Iteration:  2336
 C         0.161955         0.167423        -0.340133
 C         1.431074        -0.196754         0.414904
 C         1.299681        -1.074310         1.659867
 C         2.603721        -1.127325         2.435595
 C         3.721690        -0.937209         1.482604
 C         3.632437         0.421919         0.717036
 O         2.305240         0.965532         0.662458
 C         3.517414        -0.854942        -0.102227
 O         2.238288        -0.999580        -0.547113
 H        -0.407765         0.884975         0.276953
 H         0.338972         0.444056        -1.443924
 H        -0.486482        -0.745701        -0.414493
 H         0.421711        -0.888089         2.389237
 H         1.237317        -2.172290         1.233078
 H         2.694501        -0.263268         3.278069
 H         2.779826        -2.134802         2.939130
 H         4.760483        -1.250628         1.781337
 H         4.395819         1.133558         0.848111
 H         4.210383        -1.297071        -0.861353
