19
Iteration:  3700charge 0 multiplicity 1
 C         0.158797         0.163426        -0.380439
 C         1.426339        -0.276504         0.386475
 C         1.259827        -0.901507         1.783194
 C         2.579279        -1.111544         2.442645
 C         3.757383        -0.864056         1.416911
 C         3.700832         0.415877         0.667181
 O         2.329548         0.920736         0.648394
 C         3.542371        -0.955287        -0.073656
 O         2.158554        -1.098052        -0.497951
 H        -0.380049         0.749947         0.328533
 H         0.353737         0.740250        -1.301042
 H        -0.511264        -0.616107        -0.674896
 H         0.541402        -0.289005         2.355693
 H         0.887078        -1.838110         1.572730
 H         2.650174        -0.359068         3.263820
 H         2.809449        -2.105521         2.861293
 H         4.837795        -1.045810         1.700515
 H         4.640797         1.062319         0.481433
 H         4.317964        -1.167208        -0.817154
