19
Iteration:    66
 C         0.095665         0.276384        -0.353106
 C         1.442010        -0.239573         0.392480
 C         1.363844        -1.310700         1.677890
 C         2.642905        -1.248196         2.485912
 C         3.726533        -0.863367         1.502006
 C         3.624406         0.500067         0.655442
 O         2.269808         0.920269         0.690204
 C         3.536323        -0.784337        -0.058562
 O         2.205321        -0.939698        -0.628378
 H        -0.458530         0.839606         0.370220
 H         0.539691         0.970971        -0.971711
 H        -0.381890        -0.543952        -0.727513
 H         0.491393        -1.147383         2.321100
 H         1.251612        -2.276552         1.163452
 H         2.606070        -0.549284         3.338190
 H         2.855292        -2.164886         3.001413
 H         4.696141        -1.022303         1.870633
 H         4.359228         1.301013         0.811044
 H         4.312286        -1.112004        -0.711265
