19
Iteration:  2739charge 0 multiplicity 1
 C         0.070772         0.158029        -0.286616
 C         1.451072        -0.171648         0.402690
 C         1.183975        -0.795785         1.735283
 C         2.675222        -1.522069         2.254915
 C         3.806140        -0.720021         1.576098
 C         3.598595         0.470121         0.679603
 O         2.252436         0.971879         0.469096
 C         3.654756        -0.886127         0.053931
 O         2.249290        -1.126272        -0.419410
 H        -0.449295         1.080415         0.129950
 H         0.262446         0.374000        -1.340650
 H        -0.608709        -0.726119        -0.430597
 H         0.889330        -0.008394         2.389049
 H         0.525084        -1.650898         1.686220
 H         2.874123        -1.469080         3.299038
 H         2.721569        -2.618431         1.864798
 H         4.865692        -0.928923         1.754148
 H         4.203759         1.332541         0.586248
 H         4.459692        -1.357229        -0.636479
