19
Iteration:  4836charge 0 multiplicity 1
 C         0.200485         0.199407        -0.365301
 C         1.414279        -0.227274         0.442257
 C         1.183836        -0.779050         1.747358
 C         2.659915        -1.124673         2.417675
 C         3.805138        -0.894879         1.476748
 C         3.581847         0.361328         0.543485
 O         2.299326         0.905241         0.689606
 C         3.540724        -1.041090        -0.107866
 O         2.235638        -1.110696        -0.494666
 H        -0.368681         0.920130         0.209233
 H         0.637949         0.703045        -1.208810
 H        -0.294898        -0.757384        -0.526930
 H         0.554983         0.082944         2.235228
 H         0.582555        -1.644369         1.725733
 H         2.784964        -0.524138         3.346093
 H         2.727708        -2.218825         2.727065
 H         4.797236        -0.996925         1.947517
 H         4.340120         1.196751         0.488048
 H         4.101307        -1.461278        -0.830467
