19
Iteration:  4956charge 0 multiplicity 1
 C         0.157814         0.172056        -0.417651
 C         1.407935        -0.218307         0.362683
 C         1.242892        -0.811896         1.773815
 C         2.694017        -1.220025         2.457910
 C         3.774836        -0.873845         1.446828
 C         3.658786         0.417153         0.629051
 O         2.347607         1.001319         0.615651
 C         3.512137        -0.959836        -0.045635
 O         2.126662        -1.167543        -0.449035
 H        -0.534667         0.853971         0.012995
 H         0.576544         0.624557        -1.364649
 H        -0.296581        -0.785582        -0.551747
 H         0.645687        -0.041869         2.353409
 H         0.603725        -1.699978         1.740517
 H         3.043169        -0.690161         3.425324
 H         2.639367        -2.346183         2.702952
 H         4.825014        -1.059729         1.845453
 H         4.451386         1.169332         0.610442
 H         4.131938        -1.484556        -0.839724
