19
Iteration:  3839charge 0 multiplicity 1
 C         0.251494         0.168976        -0.449214
 C         1.435941        -0.200837         0.495661
 C         1.278048        -0.775099         1.906602
 C         2.598057        -1.431249         2.286527
 C         3.752060        -0.758211         1.460402
 C         3.610724         0.445158         0.526002
 O         2.287408         0.982572         0.487662
 C         3.536275        -0.962203        -0.007562
 O         2.150320        -1.109909        -0.293072
 H        -0.278876         1.056218        -0.118167
 H         0.891015         0.271327        -1.352008
 H        -0.342828        -0.708675        -0.686585
 H         1.034020         0.055938         2.598730
 H         0.520703        -1.554366         1.818780
 H         2.759633        -1.225139         3.344157
 H         2.792032        -2.432661         2.050767
 H         4.726131        -1.006896         1.950823
 H         4.443494         1.175929         0.575923
 H         3.951294        -1.485551        -0.827544
