19
Iteration:  4414
 C         0.154793         0.116488        -0.298371
 C         1.508837        -0.213122         0.382958
 C         1.264074        -0.640183         1.843116
 C         2.571993        -1.241313         2.323235
 C         3.724650        -0.882348         1.514541
 C         3.635203         0.458137         0.649419
 O         2.285181         0.904225         0.484823
 C         3.544664        -1.013129        -0.013098
 O         2.239642        -1.148001        -0.489511
 H        -0.452162         0.724911         0.424073
 H         0.422172         0.737778        -1.127946
 H        -0.291087        -0.855332        -0.591779
 H         1.168345         0.332031         2.318017
 H         0.425975        -1.424569         1.950972
 H         2.902261        -0.992588         3.312687
 H         2.380103        -2.349072         2.329496
 H         4.707533        -1.153284         1.933460
 H         4.270283         1.345975         0.524447
 H         4.276393        -1.539170        -0.740544
