19
Iteration:  4528charge 0 multiplicity 1
 C         0.165817         0.116164        -0.261712
 C         1.470847        -0.147527         0.335964
 C         1.274178        -0.912781         1.713922
 C         2.561225        -1.117526         2.498201
 C         3.746284        -0.896745         1.517137
 C         3.685408         0.330154         0.585029
 O         2.433468         1.043580         0.550601
 C         3.483234        -0.962492        -0.021798
 O         2.132705        -1.106835        -0.518967
 H        -0.342935         0.999377         0.074724
 H         0.260199         0.288135        -1.418996
 H        -0.490431        -0.741489        -0.168676
 H         0.566035        -0.388257         2.261564
 H         0.849817        -1.935397         1.485668
 H         2.698995        -0.333749         3.314493
 H         2.465006        -2.072763         3.055844
 H         4.684502        -1.367499         1.806955
 H         4.490467         1.060340         0.366171
 H         4.177021        -1.458779        -0.603658
