19
Iteration:  2542
 C         0.097405         0.164450        -0.230134
 C         1.471520        -0.260700         0.317678
 C         1.299238        -0.952205         1.624302
 C         2.606502        -1.221958         2.417384
 C         3.777829        -0.848246         1.507135
 C         3.567635         0.381002         0.671995
 O         2.223713         0.957910         0.647113
 C         3.660063        -0.892895        -0.088875
 O         2.262558        -1.053348        -0.540331
 H        -0.149633         1.068033         0.386347
 H         0.254092         0.493956        -1.342677
 H        -0.795009        -0.415797        -0.096420
 H         0.717004        -0.316551         2.213179
 H         0.715597        -1.863765         1.525907
 H         2.717969        -0.540917         3.191747
 H         2.706414        -2.252822         2.897704
 H         4.703993        -1.105624         1.982817
 H         4.323182         1.203841         0.766101
 H         4.322820        -1.235347        -0.788728
