19
Iteration:  2887charge 0 multiplicity 1
 C         0.198329         0.140590        -0.274520
 C         1.469892        -0.267350         0.403686
 C         1.266316        -0.883924         1.781756
 C         2.573307        -1.303882         2.389781
 C         3.829488        -0.786561         1.465115
 C         3.573193         0.409945         0.695601
 O         2.238202         0.945149         0.550392
 C         3.545561        -0.869008        -0.041521
 O         2.239961        -1.075772        -0.553096
 H        -0.238329         1.081136         0.040744
 H         0.489153         0.463547        -1.339079
 H        -0.575632        -0.597689        -0.380425
 H         0.706328        -0.115042         2.337796
 H         0.648216        -1.721669         1.672032
 H         2.619974        -0.969246         3.489124
 H         2.648490        -2.371066         2.478517
 H         4.817479        -0.962950         1.965615
 H         4.414081         1.048319         0.607877
 H         4.402612        -1.100272        -0.786461
