19
Iteration:  3984charge 0 multiplicity 1
 C         0.224224         0.410029        -0.301871
 C         1.381189        -0.412525         0.378565
 C         1.253191        -1.011195         1.716126
 C         2.681879        -1.020635         2.461725
 C         3.796113        -0.800746         1.507675
 C         3.640776         0.379279         0.594482
 O         2.262345         0.898886         0.544900
 C         3.500950        -1.002402         0.049521
 O         2.169881        -1.154028        -0.527905
 H         0.101192         1.381607         0.231402
 H         0.745086         0.604996        -1.298240
 H        -0.705485        -0.151436        -0.618098
 H         0.427211        -0.566408         2.418714
 H         0.879894        -1.996607         1.467856
 H         2.813564        -0.280070         3.310667
 H         2.731073        -1.940678         2.999544
 H         4.778232        -1.180593         1.798292
 H         4.368192         1.210079         0.192924
 H         4.257614        -1.564659        -0.567043
