19
Iteration:  4295
 C         0.132790         0.151109        -0.327136
 C         1.440828        -0.142327         0.374293
 C         1.227634        -0.852081         1.770933
 C         2.617981        -1.125106         2.503435
 C         3.744772        -0.900977         1.504715
 C         3.653683         0.341664         0.626875
 O         2.393430         0.956995         0.523405
 C         3.543038        -0.980909        -0.113615
 O         2.178341        -1.121862        -0.466091
 H        -0.463038         1.016317         0.029001
 H         0.404667         0.436237        -1.387958
 H        -0.531862        -0.725716        -0.413552
 H         0.660300        -0.188101         2.294418
 H         0.650929        -1.806995         1.531553
 H         2.647516        -0.353815         3.275074
 H         2.831052        -2.102720         3.044351
 H         4.737062        -1.074088         1.899316
 H         4.484962         1.047729         0.554486
 H         4.161235        -1.564647        -0.735596
