19
Iteration:  3702charge 0 multiplicity 1
 C         0.188461         0.168636        -0.370144
 C         1.425757        -0.291290         0.377322
 C         1.245137        -0.893561         1.769355
 C         2.582696        -1.096482         2.453978
 C         3.753277        -0.860887         1.403627
 C         3.693714         0.433422         0.659021
 O         2.333888         0.911398         0.666966
 C         3.541848        -0.947863        -0.069085
 O         2.154466        -1.109886        -0.503583
 H        -0.386684         0.707014         0.344263
 H         0.306255         0.778385        -1.314550
 H        -0.536893        -0.567477        -0.670120
 H         0.560317        -0.331252         2.298965
 H         0.931133        -1.923312         1.582240
 H         2.741147        -0.336818         3.242900
 H         2.772199        -2.093164         2.894056
 H         4.788829        -1.058250         1.674431
 H         4.609636         0.988829         0.522846
 H         4.284924        -1.191552        -0.792197
