19
Iteration:   304
 C         0.200978         0.278485        -0.171335
 C         1.435418        -0.295165         0.380347
 C         1.389260        -1.369766         1.498253
 C         2.589349        -1.191463         2.471868
 C         3.707954        -0.786467         1.472179
 C         3.524263         0.503196         0.735328
 O         2.225105         0.945322         0.723424
 C         3.550565        -0.806029        -0.082618
 O         2.267098        -0.977010        -0.648912
 H        -0.082006         1.156430         0.510207
 H         0.403847         0.670256        -1.167752
 H        -0.627770        -0.398963        -0.265982
 H         0.472899        -1.272824         2.037028
 H         1.458246        -2.307090         0.964451
 H         2.422514        -0.381581         3.212044
 H         2.790323        -2.109118         2.966372
 H         4.728928        -1.019865         1.716278
 H         4.338136         1.313308         0.870051
 H         4.499073        -1.190658        -0.601858
