19
Iteration:   963
 C         0.175895         0.162704        -0.439694
 C         1.409095        -0.250265         0.380794
 C         1.266832        -1.116088         1.707128
 C         2.648467        -1.275183         2.401721
 C         3.862132        -0.840640         1.437637
 C         3.568273         0.566678         0.710941
 O         2.216889         0.852282         0.902431
 C         3.571012        -0.778491        -0.069780
 O         2.241959        -0.945966        -0.639551
 H        -0.520201         0.792740         0.078899
 H         0.455427         0.748589        -1.347629
 H        -0.223754        -0.799923        -0.835526
 H         0.369170        -0.816958         2.335348
 H         0.618716        -2.089894         1.464681
 H         2.615591        -0.764614         3.352597
 H         2.947316        -2.299407         2.722526
 H         4.870759        -1.236916         1.733018
 H         4.231366         1.377697         0.527133
 H         4.330962        -1.087019        -0.691630
