19
Iteration:  4067
 C         0.210484         0.208619        -0.426849
 C         1.438224        -0.236097         0.378734
 C         1.335458        -0.729939         1.857443
 C         2.677101        -1.225596         2.414366
 C         3.761363        -0.863468         1.482187
 C         3.588383         0.381280         0.646849
 O         2.237229         0.965240         0.512064
 C         3.517953        -1.014958         0.001744
 O         2.156057        -1.181480        -0.452756
 H        -0.537862         0.637524         0.178345
 H         0.621389         0.891714        -1.236009
 H        -0.265020        -0.635024        -0.875329
 H         1.094539         0.070237         2.529023
 H         0.494647        -1.489178         1.856409
 H         2.895614        -0.779979         3.370931
 H         2.534152        -2.326009         2.404987
 H         4.834596        -0.980409         1.672563
 H         4.335893         1.202616         0.572331
 H         4.403276        -1.431061        -0.592248
