19
Iteration:   770charge 0 multiplicity 1
 C         0.097125         0.310670        -0.192506
 C         1.444312        -0.295782         0.349316
 C         1.315684        -1.279171         1.518842
 C         2.632157        -1.171599         2.431856
 C         3.753648        -0.874145         1.506330
 C         3.496433         0.510081         0.824459
 O         2.192623         0.893046         0.672909
 C         3.653642        -0.772568        -0.099878
 O         2.340670        -1.003520        -0.647218
 H        -0.225354         0.564062         0.810535
 H         0.321553         0.978058        -1.040930
 H        -0.542670        -0.426946        -0.749815
 H         0.506607        -1.104182         2.307531
 H         1.070039        -2.196394         1.044522
 H         2.386746        -0.392163         3.248823
 H         2.786796        -2.226712         2.967915
 H         4.755815        -0.950763         1.937384
 H         4.316583         1.223691         0.895997
 H         4.432876        -0.886554        -0.816048
