19
Iteration:   581charge 0 multiplicity 1
 C         0.108621         0.095609        -0.333133
 C         1.475376        -0.149610         0.410419
 C         1.263589        -1.087028         1.599209
 C         2.647258        -1.423149         2.278788
 C         3.743080        -0.817596         1.449345
 C         3.532405         0.508182         0.781751
 O         2.219376         0.983355         0.724752
 C         3.644431        -0.700558        -0.061270
 O         2.310860        -1.030792        -0.461450
 H        -0.620703         0.429224         0.400948
 H         0.256847         0.821339        -1.158924
 H        -0.210823        -0.852470        -0.776767
 H         0.613092        -0.577098         2.351772
 H         0.713519        -2.002592         1.303209
 H         2.630680        -0.844074         3.235433
 H         2.739495        -2.568693         2.380896
 H         4.848382        -1.034466         1.669477
 H         4.271978         1.271844         0.763329
 H         4.355783        -1.042021        -0.793320
