19
Iteration:   710charge 0 multiplicity 1
 C         0.167832         0.120419        -0.415409
 C         1.411126        -0.225262         0.395446
 C         1.315822        -1.095051         1.669594
 C         2.691780        -1.319145         2.359988
 C         3.776477        -0.924798         1.452850
 C         3.531501         0.462860         0.867066
 O         2.157945         0.942938         0.715469
 C         3.638427        -0.653116        -0.124486
 O         2.284449        -0.955429        -0.553740
 H        -0.589307         0.712672         0.151672
 H         0.270252         0.730647        -1.317180
 H        -0.338648        -0.826526        -0.564595
 H         0.715488        -0.688721         2.450513
 H         0.732256        -2.029043         1.395571
 H         2.810982        -0.842881         3.323650
 H         2.760366        -2.361102         2.576140
 H         4.858613        -1.159264         1.742448
 H         4.121607         1.272948         1.196943
 H         4.242440        -1.048182        -0.919370
