19
Iteration:  4858charge 0 multiplicity 1
 C         0.163422         0.230415        -0.376078
 C         1.464536        -0.293511         0.384428
 C         1.261153        -0.875185         1.864068
 C         2.651026        -1.118504         2.466592
 C         3.696944        -0.923703         1.411233
 C         3.608322         0.381641         0.687835
 O         2.353540         0.931487         0.520600
 C         3.511215        -0.869006        -0.021571
 O         2.189804        -1.161342        -0.519991
 H        -0.191146         1.111811         0.129884
 H         0.441626         0.626917        -1.354390
 H        -0.546899        -0.587584        -0.464902
 H         0.585482        -0.079912         2.339107
 H         0.599247        -1.693885         1.791222
 H         2.816600        -0.445810         3.356234
 H         2.888493        -2.188865         2.753932
 H         4.720044        -1.259195         1.649702
 H         4.586480         0.922027         0.579061
 H         4.183063        -1.175564        -0.706290
