19
Iteration:  3194
 C         0.148079         0.150740        -0.395041
 C         1.458625        -0.230053         0.405578
 C         1.294666        -0.816772         1.844872
 C         2.586035        -1.293586         2.319272
 C         3.768562        -0.837648         1.506372
 C         3.586805         0.470847         0.614251
 O         2.269414         1.016250         0.525912
 C         3.586981        -0.896323        -0.005063
 O         2.216100        -1.212985        -0.418509
 H        -0.606466         0.562926         0.284724
 H         0.506206         0.962558        -1.006952
 H        -0.271965        -0.657736        -1.003831
 H         1.006212         0.007153         2.588505
 H         0.647518        -1.668834         1.804363
 H         2.861475        -1.129304         3.347120
 H         2.452536        -2.338674         2.117331
 H         4.745903        -0.906546         2.037560
 H         4.458806         1.005372         0.484889
 H         4.329251        -1.312150        -0.770729
