19
Iteration:  2270
 C         0.277878         0.159967        -0.350040
 C         1.467226        -0.185189         0.375125
 C         1.326965        -0.801497         1.807962
 C         2.621119        -1.542982         2.176343
 C         3.811743        -0.816423         1.509519
 C         3.485747         0.501944         0.701547
 O         2.179752         1.014737         0.515762
 C         3.534511        -0.810921        -0.016248
 O         2.249718        -1.178530        -0.321577
 H        -0.438304         0.781204         0.179802
 H         0.407622         0.781225        -1.246888
 H        -0.230036        -0.646662        -0.910392
 H         0.976240        -0.100047         2.630555
 H         0.483020        -1.641585         1.777154
 H         2.751941        -1.298066         3.310373
 H         2.576121        -2.621483         1.987205
 H         4.851762        -0.952507         1.920484
 H         4.214319         1.252684         0.746197
 H         4.289177        -1.048766        -0.863873
