19
Iteration:  2079charge 0 multiplicity 1
 C         0.087679         0.150989        -0.221413
 C         1.454140        -0.175786         0.345657
 C         1.257198        -1.023726         1.628728
 C         2.576495        -1.387498         2.289770
 C         3.749272        -0.819677         1.518948
 C         3.621040         0.490991         0.729881
 O         2.262244         1.019212         0.523001
 C         3.622791        -0.863146         0.010005
 O         2.304052        -1.036892        -0.427190
 H        -0.506815         0.592998         0.542718
 H         0.094155         0.647456        -1.216504
 H        -0.314534        -0.793988        -0.457185
 H         0.680801        -0.424257         2.382454
 H         0.522478        -1.809012         1.381246
 H         2.620940        -1.093766         3.296921
 H         2.712394        -2.550086         2.267137
 H         4.835444        -0.957800         1.856455
 H         4.416608         1.170041         0.558745
 H         4.514260        -1.013049        -0.680067
