19
Iteration:   356charge 0 multiplicity 1
 C         0.152803         0.125695        -0.319847
 C         1.472019        -0.248092         0.337026
 C         1.281742        -0.998939         1.671497
 C         2.618427        -1.377890         2.266750
 C         3.821253        -0.900507         1.341673
 C         3.524969         0.508918         0.867321
 O         2.142047         0.952760         0.759516
 C         3.605935        -0.685249        -0.088202
 O         2.313798        -1.036033        -0.515110
 H        -0.389826         0.570107         0.532737
 H         0.333963         0.800109        -1.192697
 H        -0.215286        -0.856372        -0.588473
 H         0.606674        -0.414362         2.277474
 H         0.747701        -1.945189         1.510888
 H         2.886890        -0.873904         3.172586
 H         2.572301        -2.407796         2.650086
 H         4.674619        -1.176208         1.777253
 H         4.346355         1.309276         0.908771
 H         4.472275        -0.813055        -0.790019
