19
Iteration:  1671
 C         0.132343         0.114465        -0.277518
 C         1.451188        -0.274546         0.338267
 C         1.313049        -1.150744         1.606776
 C         2.622296        -1.110220         2.416159
 C         3.734398        -0.838919         1.478820
 C         3.642695         0.455447         0.656315
 O         2.280516         0.928812         0.793745
 C         3.579357        -0.920066        -0.014236
 O         2.219131        -0.901348        -0.650473
 H        -0.357122         0.823761         0.378505
 H         0.347147         0.764178        -1.160144
 H        -0.432044        -0.773145        -0.342031
 H         0.431109        -0.709603         2.184784
 H         1.010710        -2.146781         1.342313
 H         2.412684        -0.344391         3.154712
 H         2.588340        -2.165994         2.821782
 H         4.690264        -1.202519         1.956313
 H         4.417584         1.231480         0.664848
 H         4.253419        -1.272368        -0.666745
