19
Iteration:  1627
 C         0.162805         0.064203        -0.335417
 C         1.441119        -0.240532         0.377007
 C         1.263352        -0.953999         1.737540
 C         2.638301        -1.366585         2.308885
 C         3.738620        -0.875398         1.468795
 C         3.566453         0.463343         0.752616
 O         2.256041         1.016534         0.652108
 C         3.591018        -0.791030        -0.103248
 O         2.289026        -1.015580        -0.480536
 H        -0.454218         0.851650         0.114534
 H         0.373082         0.608226        -1.285757
 H        -0.548316        -0.715918        -0.436785
 H         0.650395        -0.327796         2.452093
 H         0.649922        -1.809681         1.617681
 H         2.693845        -0.800398         3.276691
 H         2.677585        -2.506929         2.361459
 H         4.785842        -1.004699         1.765364
 H         4.329959         1.228054         0.715485
 H         4.360730        -1.190055        -0.714647
