19
Iteration:  4806charge 0 multiplicity 1
 C         0.177774         0.226544        -0.349559
 C         1.440050        -0.192332         0.422481
 C         1.257857        -0.900791         1.709444
 C         2.642539        -1.252607         2.397173
 C         3.771120        -0.876103         1.496603
 C         3.683344         0.463885         0.593861
 O         2.378749         0.970478         0.458715
 C         3.468004        -0.928531         0.012241
 O         2.147878        -1.158815        -0.330711
 H        -0.510014         0.731990         0.318431
 H         0.395332         0.947521        -1.210371
 H        -0.210474        -0.705840        -0.792396
 H         0.533933        -0.222033         2.315735
 H         0.649276        -1.732090         1.503482
 H         2.609979        -0.621789         3.303627
 H         2.795826        -2.216363         2.619530
 H         4.682643        -1.393374         1.891175
 H         4.461243         1.251442         0.446207
 H         3.938817        -1.562944        -0.744169
