19
Iteration:  4014charge 0 multiplicity 1
 C         0.147971         0.164570        -0.242341
 C         1.513404        -0.160758         0.369001
 C         1.209167        -0.913710         1.660599
 C         2.606364        -1.085640         2.487075
 C         3.701056        -0.888748         1.465955
 C         3.716348         0.320650         0.622585
 O         2.362315         1.005200         0.515549
 C         3.501968        -1.049836        -0.033447
 O         2.176916        -1.075428        -0.448606
 H        -0.434145         0.831847         0.348016
 H         0.187951         0.476041        -1.359641
 H        -0.193108        -0.854570        -0.265293
 H         0.408603        -0.556657         2.322280
 H         0.802501        -1.775254         1.195706
 H         2.799931        -0.209611         3.206982
 H         2.656301        -2.004677         3.125717
 H         4.725574        -1.159090         1.728943
 H         4.418753         1.160988         0.489229
 H         4.303324        -1.477701        -0.733694
