19
Iteration:  3151charge 0 multiplicity 1
 C         0.263377         0.097775        -0.463020
 C         1.400220        -0.244582         0.438088
 C         1.273065        -0.731864         1.947889
 C         2.606329        -1.427846         2.182205
 C         3.771768        -0.792540         1.504252
 C         3.539929         0.491819         0.634156
 O         2.267748         1.056630         0.554567
 C         3.564369        -0.912410        -0.103049
 O         2.199987        -1.184738        -0.314794
 H        -0.484861         0.740649         0.009953
 H         0.844637         0.414225        -1.340829
 H        -0.349875        -0.809671        -0.654313
 H         1.044757         0.180623         2.570824
 H         0.539567        -1.493617         2.028250
 H         2.672788        -1.383458         3.310850
 H         2.622653        -2.472975         1.931911
 H         4.793015        -0.924472         1.951393
 H         4.330421         1.149898         0.494039
 H         4.526035        -1.169158        -0.736187
