19
Iteration:  3865
 C         0.150901         0.261229        -0.374377
 C         1.449587        -0.144556         0.357300
 C         1.253996        -0.703388         1.857384
 C         2.609743        -1.428393         2.274823
 C         3.829968        -0.788137         1.530604
 C         3.594873         0.427848         0.621667
 O         2.248330         1.012229         0.429852
 C         3.551599        -0.944178         0.004363
 O         2.240919        -1.302874        -0.288885
 H        -0.373662         0.827248         0.383990
 H         0.380396         0.798818        -1.303277
 H        -0.310790        -0.698220        -0.596237
 H         0.906215         0.176828         2.531725
 H         0.521795        -1.528003         1.795886
 H         2.737975        -1.449392         3.358900
 H         2.677186        -2.463124         1.877452
 H         4.781813        -1.032468         1.953437
 H         4.469416         1.066386         0.462983
 H         4.149811        -1.270104        -0.894489
