19
Iteration:  1299
 C         0.133712        -0.057846        -0.312905
 C         1.466087        -0.176003         0.395955
 C         1.192038        -0.812325         1.726730
 C         2.627173        -1.455616         2.267352
 C         3.772980        -0.913809         1.416480
 C         3.602987         0.481664         0.795386
 O         2.254754         1.081147         0.664669
 C         3.613103        -0.798885        -0.055842
 O         2.294862        -1.014476        -0.527468
 H        -0.527156         0.607260         0.314475
 H         0.182058         0.527644        -1.261534
 H        -0.406230        -1.082655        -0.384407
 H         0.714518        -0.193612         2.574212
 H         0.522731        -1.717883         1.546402
 H         2.676090        -1.029611         3.257316
 H         2.633304        -2.475671         2.128606
 H         4.812412        -1.087097         1.768191
 H         4.408547         1.196595         0.876471
 H         4.353936        -1.064528        -0.729520
