19
Iteration:  2884charge 0 multiplicity 1
 C         0.188548         0.149996        -0.253331
 C         1.461786        -0.268069         0.386507
 C         1.289348        -0.894994         1.751740
 C         2.591589        -1.291405         2.409019
 C         3.799561        -0.765455         1.488913
 C         3.558857         0.404960         0.700951
 O         2.258398         0.924227         0.549509
 C         3.535827        -0.899160        -0.050764
 O         2.241700        -1.064022        -0.567683
 H        -0.192926         1.113692         0.120965
 H         0.455693         0.544919        -1.321469
 H        -0.586418        -0.625537        -0.427385
 H         0.745492        -0.099831         2.287924
 H         0.693950        -1.774156         1.634849
 H         2.655814        -0.914783         3.418484
 H         2.611872        -2.437505         2.583963
 H         4.788590        -0.881340         1.981207
 H         4.386597         1.097457         0.622425
 H         4.389800        -1.075322        -0.726187
