19
Iteration:  2172
 C         0.189721         0.229351        -0.173295
 C         1.429945        -0.278119         0.368301
 C         1.297830        -1.105840         1.605544
 C         2.569308        -1.288015         2.405752
 C         3.760867        -0.716435         1.539086
 C         3.586443         0.490014         0.625396
 O         2.279284         0.978432         0.608554
 C         3.612963        -0.925079         0.049281
 O         2.236854        -1.051224        -0.610563
 H        -0.230624         0.886272         0.624151
 H         0.379130         0.844153        -1.053892
 H        -0.703171        -0.415276        -0.495639
 H         0.346546        -0.861544         2.155291
 H         0.995233        -2.122464         1.094837
 H         2.394025        -0.704227         3.384858
 H         2.656605        -2.286524         2.671598
 H         4.787021        -0.977092         1.724711
 H         4.410499         1.238427         0.482264
 H         4.401670        -1.360272        -0.515457
