19
Iteration:  3314charge 0 multiplicity 1
 C         0.165236         0.230268        -0.280016
 C         1.448310        -0.274803         0.370691
 C         1.263701        -0.942193         1.697880
 C         2.614865        -1.095570         2.408801
 C         3.814174        -0.837056         1.443392
 C         3.617873         0.383453         0.697534
 O         2.239388         0.923881         0.578291
 C         3.555184        -0.936164        -0.042566
 O         2.217428        -1.170098        -0.483838
 H        -0.159212         1.098141         0.250458
 H         0.572088         0.560418        -1.284075
 H        -0.693060        -0.443737        -0.278273
 H         0.532590        -0.271584         2.372318
 H         0.849285        -1.900290         1.417556
 H         2.595038        -0.402596         3.250713
 H         2.725688        -2.168951         2.766591
 H         4.882818        -0.814460         1.742618
 H         4.368246         1.119201         0.460952
 H         4.320616        -1.236300        -0.675559
