19
Iteration:  3732charge 0 multiplicity 1
 C         0.213659         0.315816        -0.302666
 C         1.408064        -0.238527         0.458281
 C         1.288489        -1.081367         1.694348
 C         2.573748        -0.972259         2.437039
 C         3.811193        -0.848749         1.435827
 C         3.635227         0.340694         0.580304
 O         2.248070         0.845722         0.667138
 C         3.557052        -1.003285        -0.031362
 O         2.202901        -1.106476        -0.549432
 H        -0.414554         0.933485         0.308314
 H         0.535974         1.036611        -1.064494
 H        -0.518352        -0.346109        -0.707325
 H         0.477113        -0.613267         2.414317
 H         0.976876        -2.046583         1.458074
 H         2.624668         0.047168         2.919357
 H         2.689973        -1.706188         3.284324
 H         4.818208        -1.124487         1.890976
 H         4.507845         1.017649         0.247980
 H         4.292717        -1.241671        -0.812020
