19
Iteration:   739charge 0 multiplicity 1
 C         0.243568         0.081891        -0.366654
 C         1.435439        -0.257857         0.415089
 C         1.252581        -1.233008         1.528119
 C         2.606511        -1.201346         2.366205
 C         3.791907        -0.883395         1.465946
 C         3.577695         0.539367         0.638252
 O         2.232810         0.929843         0.916319
 C         3.569317        -0.776211        -0.014708
 O         2.247151        -0.854868        -0.559120
 H        -0.549338         0.479998         0.263668
 H         0.345690         0.800225        -1.212369
 H        -0.295271        -0.857718        -0.672468
 H         0.642859        -0.795641         2.364307
 H         0.993524        -2.239787         0.976256
 H         2.535087        -0.436922         3.167246
 H         2.760281        -2.199641         2.776865
 H         4.799862        -1.382130         1.682726
 H         4.253236         1.316211         0.431007
 H         4.168484        -1.162925        -0.785109
