19
Iteration:  3824
 C         0.260594         0.108085        -0.424073
 C         1.446069        -0.164132         0.402131
 C         1.265884        -0.717804         1.819198
 C         2.658258        -1.290266         2.341168
 C         3.802576        -0.868220         1.496413
 C         3.601453         0.350460         0.638972
 O         2.224048         1.002227         0.599470
 C         3.529124        -0.974380        -0.110196
 O         2.175441        -1.134227        -0.389943
 H        -0.217765         1.065556         0.002401
 H         0.471557         0.345001        -1.450288
 H        -0.519724        -0.686491        -0.257941
 H         0.919382         0.084888         2.412122
 H         0.455203        -1.512424         1.910611
 H         2.828011        -1.093218         3.422963
 H         2.416210        -2.413986         2.322303
 H         4.830857        -0.921621         1.808008
 H         4.368518         1.124248         0.427754
 H         4.343527        -1.261890        -0.827106
