19
Iteration:   960charge 0 multiplicity 1
 C         0.177052         0.152880        -0.442219
 C         1.420176        -0.238299         0.375607
 C         1.281309        -1.135528         1.725912
 C         2.654692        -1.275798         2.421005
 C         3.838063        -0.827737         1.452180
 C         3.590037         0.550833         0.738344
 O         2.203045         0.843556         0.877782
 C         3.573646        -0.778720        -0.085807
 O         2.234071        -0.929646        -0.659639
 H        -0.571120         0.734909         0.110182
 H         0.444752         0.688383        -1.345161
 H        -0.252572        -0.706233        -0.897178
 H         0.533651        -0.643965         2.341497
 H         0.661348        -2.060515         1.527311
 H         2.663083        -0.822379         3.468047
 H         2.804727        -2.436546         2.712480
 H         4.761929        -1.159168         1.807884
 H         4.277629         1.449353         0.500332
 H         4.320470        -1.088844        -0.846440
