19
Iteration:  4408
 C         0.153013         0.095848        -0.308280
 C         1.465423        -0.244986         0.392332
 C         1.210042        -0.610572         1.846055
 C         2.569761        -1.282227         2.423666
 C         3.791821        -0.896500         1.472472
 C         3.627787         0.437758         0.621295
 O         2.282746         0.938384         0.470785
 C         3.578643        -1.021422         0.024139
 O         2.248594        -1.096611        -0.557599
 H        -0.494739         0.690513         0.351387
 H         0.476432         0.693090        -1.198012
 H        -0.345631        -0.845319        -0.592861
 H         1.165783         0.358185         2.460590
 H         0.468669        -1.307356         2.219367
 H         2.749604        -1.055813         3.522859
 H         2.447492        -2.385545         2.393890
 H         4.789101        -1.205310         1.810216
 H         4.337007         1.255878         0.557052
 H         4.204731        -1.458962        -0.720659
