19
Iteration:   559charge 0 multiplicity 1
 C         0.178383         0.226627        -0.222182
 C         1.427510        -0.287809         0.404728
 C         1.245283        -1.227011         1.571820
 C         2.652795        -1.331505         2.349330
 C         3.794571        -0.795228         1.490436
 C         3.522022         0.567386         0.804594
 O         2.206497         0.975531         0.598056
 C         3.640101        -0.806793        -0.026857
 O         2.266007        -0.986892        -0.549667
 H        -0.447692         0.607801         0.573764
 H         0.480055         1.046033        -0.923832
 H        -0.380811        -0.498122        -0.824688
 H         0.323639        -1.163240         2.180146
 H         1.183893        -2.252015         1.192291
 H         2.589641        -0.665883         3.252438
 H         2.746508        -2.459013         2.543954
 H         4.868208        -1.007842         1.934380
 H         4.221320         1.403428         0.723662
 H         4.382882        -1.027348        -0.805075
