19
Iteration:  1930charge 0 multiplicity 1
 C         0.168680         0.285976        -0.186151
 C         1.418206        -0.233257         0.350692
 C         1.258546        -1.289507         1.598426
 C         2.537517        -1.174274         2.393053
 C         3.681379        -0.797236         1.457630
 C         3.597636         0.490638         0.703819
 O         2.278106         0.892545         0.624908
 C         3.608682        -0.835248        -0.035045
 O         2.321189        -1.051571        -0.522461
 H        -0.287580         0.957332         0.593629
 H         0.484142         1.050159        -1.029181
 H        -0.639470        -0.408524        -0.431781
 H         0.380401        -1.188424         2.174038
 H         1.360631        -2.267728         1.050640
 H         2.461643        -0.245657         3.103832
 H         2.888957        -2.002071         2.980782
 H         4.754802        -0.959615         1.799127
 H         4.391122         1.230623         0.566286
 H         4.424683        -1.046939        -0.752584
