19
Iteration:  3904
 C         0.149893         0.079682        -0.243734
 C         1.510748        -0.183761         0.384119
 C         1.238919        -0.757993         1.868501
 C         2.563048        -1.249497         2.505682
 C         3.718050        -0.875685         1.523044
 C         3.648138         0.401021         0.602698
 O         2.362577         0.993975         0.443592
 C         3.510094        -1.014125        -0.034097
 O         2.269886        -1.084785        -0.606384
 H        -0.528315         0.552218         0.472242
 H         0.128656         0.776532        -1.166465
 H        -0.461216        -0.723233        -0.660805
 H         0.914582         0.088060         2.427232
 H         0.376794        -1.421566         1.692968
 H         2.756453        -1.020375         3.586224
 H         2.352968        -2.342853         2.388542
 H         4.718602        -1.288698         1.813139
 H         4.353179         1.209758         0.582815
 H         4.267927        -1.228097        -0.729172
