19
Iteration:   742charge 0 multiplicity 1
 C         0.232182         0.108521        -0.343426
 C         1.450977        -0.267494         0.399041
 C         1.254080        -1.241254         1.530446
 C         2.601388        -1.192060         2.354571
 C         3.806056        -0.874368         1.489446
 C         3.572539         0.544573         0.617913
 O         2.221397         0.915562         0.915688
 C         3.552527        -0.771112        -0.031110
 O         2.258231        -0.851985        -0.555248
 H        -0.503082         0.458597         0.413766
 H         0.372424         0.748645        -1.236642
 H        -0.241427        -0.819634        -0.715924
 H         0.608300        -0.816196         2.286548
 H         1.010742        -2.278731         1.023555
 H         2.447018        -0.478907         3.129275
 H         2.750039        -2.133122         2.751351
 H         4.780329        -1.437602         1.726050
 H         4.286311         1.312856         0.457170
 H         4.235670        -1.298552        -0.711356
