19
Iteration:  4076charge 0 multiplicity 1
 O        -0.131843         0.249869        -0.037196
 C        -0.684024         1.451853         0.606763
 C         0.120484         2.784000         0.376886
 C        -0.315199         3.543623         1.581283
 C        -0.884154         2.708857         2.741996
 C        -0.779830         1.250632         2.158889
 C        -1.768352         3.457781         1.795688
 O        -2.675493         2.763835         0.927836
 C        -2.081821         1.640737         0.203644
 H        -0.546646         0.053214        -0.901682
 H         1.169397         2.590542         0.221158
 H        -0.204566         3.323165        -0.558764
 H         0.104027         4.561512         1.816993
 H        -0.764561         3.030815         3.763646
 H         0.242178         0.705401         2.424661
 H        -1.629602         0.598514         2.504126
 H        -2.181391         4.482867         2.013438
 H        -2.592197         0.662560         0.547581
 H        -2.194302         1.772321        -0.853628
