19
Iteration:  3894
 O        -0.176413         0.363142        -0.202995
 C        -0.633249         1.403495         0.620612
 C         0.220161         2.652318         0.484987
 C        -0.374562         3.648433         1.491091
 C        -0.893983         2.674830         2.671031
 C        -0.663224         1.264469         2.165194
 C        -1.822633         3.455629         1.802061
 O        -2.759903         2.778085         0.910326
 C        -2.100316         1.664763         0.311409
 H        -0.628348        -0.479262        -0.176843
 H         1.280783         2.451496         0.933152
 H         0.313382         3.060463        -0.510619
 H         0.128040         4.659086         1.583581
 H        -0.802316         2.898365         3.708560
 H         0.250565         0.736138         2.479341
 H        -1.371514         0.606293         2.628481
 H        -2.368515         4.319196         2.399685
 H        -2.572279         0.715152         0.657077
 H        -2.270696         1.666157        -0.783157
