19
Iteration:  2520
 O        -0.122989         0.231621         0.027015
 C        -0.717139         1.400009         0.565112
 C         0.233163         2.786800         0.539060
 C        -0.297790         3.567132         1.795105
 C        -1.104889         2.450943         2.705068
 C        -0.836132         1.113258         2.063345
 C        -1.798796         3.457630         1.837739
 O        -2.408065         3.074780         0.619916
 C        -2.170534         1.783840         0.088704
 H        -0.449708        -0.511516         0.605472
 H         1.165799         2.482205         0.894518
 H         0.133644         3.351111        -0.455673
 H         0.137180         4.419058         2.228653
 H        -1.180607         2.496457         3.716943
 H        -0.028575         0.594476         2.536919
 H        -1.703488         0.456922         2.007918
 H        -2.260759         4.285588         2.292868
 H        -2.876624         1.019179         0.472389
 H        -2.354506         1.852514        -0.990977
