19
Iteration:  2559
 O        -0.162930         0.375582        -0.188271
 C        -0.667984         1.374825         0.680655
 C         0.270050         2.487719         0.632994
 C        -0.358395         3.483888         1.669385
 C        -1.112362         2.602125         2.749859
 C        -0.793279         1.178483         2.263675
 C        -1.841792         3.528098         1.806629
 O        -2.590921         2.944116         0.678933
 C        -1.998942         1.850857         0.084161
 H        -0.884181        -0.181004        -0.507517
 H         1.302506         2.108337         0.918531
 H         0.433762         2.852350        -0.365356
 H         0.227230         4.430511         1.862405
 H        -1.003739         2.749419         3.879939
 H         0.137817         0.816176         2.806005
 H        -1.587586         0.459535         2.585555
 H        -2.355030         4.452452         2.042875
 H        -2.772205         1.017999         0.009586
 H        -1.636752         2.168048        -0.936570
