19
Iteration:  2668charge 0 multiplicity 1
 O        -0.216645         0.427557        -0.192043
 C        -0.697339         1.400659         0.718171
 C         0.301237         2.593752         0.633744
 C        -0.308791         3.550073         1.699180
 C        -1.081552         2.581793         2.737952
 C        -0.837023         1.098599         2.211072
 C        -1.783878         3.470402         1.720779
 O        -2.570105         2.951663         0.708406
 C        -2.032132         1.764513         0.104296
 H        -0.721213        -0.397455        -0.095647
 H         1.338835         2.263113         0.975547
 H         0.519869         2.952167        -0.331825
 H         0.221658         4.462304         1.904620
 H        -1.103444         3.024668         3.711340
 H         0.041602         0.613954         2.711380
 H        -1.701391         0.420991         2.374179
 H        -2.283399         4.241184         2.154249
 H        -2.857715         0.951432         0.153447
 H        -1.824181         1.947231        -0.929044
