19
Iteration:  1840charge 0 multiplicity 1
 O        -0.080491         0.405385        -0.108866
 C        -0.723467         1.399958         0.639503
 C         0.247714         2.501639         0.757308
 C        -0.273206         3.370493         1.946150
 C        -1.194660         2.491910         2.681300
 C        -1.101473         1.120353         2.092214
 C        -1.716673         3.495524         1.806361
 O        -2.432033         3.112891         0.512147
 C        -2.037752         1.895030        -0.021046
 H         0.468764        -0.107645         0.530100
 H         1.279919         2.015603         1.043635
 H         0.299538         3.192270        -0.082447
 H         0.321681         4.131528         2.439277
 H        -1.342236         2.680555         3.726294
 H        -0.357887         0.372213         2.494182
 H        -2.051204         0.581291         2.292124
 H        -2.267174         4.310776         2.139489
 H        -2.908327         1.276137         0.074171
 H        -1.875077         2.022658        -1.146314
