19
Iteration:   165
 O        -0.228893         0.249759        -0.147087
 C        -0.672596         1.374616         0.650079
 C         0.294192         2.589331         0.829542
 C        -0.360825         3.462408         1.877320
 C        -1.130564         2.449744         2.711456
 C        -0.970114         1.020696         2.107315
 C        -1.862929         3.513338         1.802038
 O        -2.451434         3.191568         0.505089
 C        -1.946302         1.941216        -0.041447
 H         0.515249        -0.173226         0.335152
 H         1.329776         2.282963         1.302643
 H         0.609686         3.084472        -0.089844
 H         0.076535         4.359527         2.194209
 H        -1.380720         2.566151         3.811661
 H        -0.010329         0.595720         2.614565
 H        -1.771744         0.375148         2.362735
 H        -2.415904         4.405167         2.276510
 H        -2.717393         1.207713         0.174417
 H        -1.795487         2.082297        -1.164048
