19
Iteration:  1421charge 0 multiplicity 1
 O        -0.267012         0.397838        -0.211008
 C        -0.733032         1.385467         0.670525
 C         0.326001         2.543944         0.925327
 C        -0.370320         3.386556         1.840703
 C        -1.177153         2.527745         2.685093
 C        -0.908121         1.046811         2.202011
 C        -1.825913         3.463849         1.728038
 O        -2.517330         3.073120         0.576046
 C        -1.897908         1.936175        -0.082341
 H         0.540211         0.001416         0.108492
 H         1.276107         2.164436         1.406777
 H         0.707090         2.957599        -0.071492
 H         0.368495         4.213728         2.162501
 H        -1.280049         2.903716         3.819800
 H         0.091606         0.753982         2.538133
 H        -1.653902         0.316848         2.556077
 H        -2.352591         4.408935         2.056140
 H        -2.610608         1.070646        -0.112017
 H        -1.742680         2.248815        -1.151978
