19
Iteration:   139charge 0 multiplicity 1
 O        -0.272482         0.369948        -0.121214
 C        -0.649786         1.444230         0.682601
 C         0.461625         2.524854         0.820985
 C        -0.232110         3.361547         1.826926
 C        -1.322848         2.456260         2.704914
 C        -0.952173         1.114458         2.095297
 C        -1.812155         3.514088         1.753818
 O        -2.583586         3.110787         0.583154
 C        -1.967488         1.900571        -0.051115
 H         0.498115        -0.122505         0.191379
 H         1.255047         1.960600         1.343597
 H         0.855525         3.003740        -0.072639
 H         0.139595         4.320187         2.318153
 H        -1.341740         2.659654         3.737666
 H        -0.009348         0.869430         2.699843
 H        -1.647291         0.239097         2.221697
 H        -2.194651         4.402673         2.140415
 H        -2.777788         1.043233        -0.072805
 H        -1.624019         2.205416        -1.113296
