19
Iteration:  2872
 O        -0.131438         0.228489         0.124304
 C        -0.735189         1.391717         0.624729
 C         0.241485         2.671860         0.579343
 C        -0.305324         3.473686         1.687504
 C        -0.976727         2.538201         2.628762
 C        -0.806011         1.156972         2.069332
 C        -1.890007         3.434952         1.862843
 O        -2.596960         3.024425         0.761156
 C        -2.081575         1.893023        -0.007802
 H        -0.135104         0.128053        -0.855762
 H         1.176812         2.378941         0.879123
 H         0.106870         3.216613        -0.458145
 H         0.387592         4.193189         2.181316
 H        -0.848113         2.578742         3.698061
 H         0.168807         0.755061         2.351334
 H        -1.524817         0.305432         2.280693
 H        -2.292099         4.297708         2.288786
 H        -2.805337         1.099861        -0.067951
 H        -2.173329         2.331879        -0.994149
