19
Iteration:    22
 O        -0.358314         0.346377        -0.279526
 C        -0.639838         1.381320         0.777940
 C         0.412419         2.571538         0.853395
 C        -0.331691         3.602652         1.807615
 C        -1.083658         2.515986         2.730894
 C        -1.095662         1.021719         2.233796
 C        -1.851519         3.422973         1.776165
 O        -2.495601         3.035243         0.539564
 C        -1.831311         1.924528        -0.066068
 H         0.468886        -0.171659        -0.029053
 H         1.390687         2.239314         1.285621
 H         0.570431         2.948894        -0.137144
 H         0.225450         4.459138         2.227513
 H        -1.277498         2.654887         3.780786
 H        -0.388074         0.315891         2.713534
 H        -2.071554         0.659612         2.349448
 H        -2.407432         4.150297         2.331337
 H        -2.529196         1.169778        -0.216514
 H        -1.501999         2.242638        -1.046842
