19
Iteration:   838charge 0 multiplicity 1
 O        -0.169475         0.249066        -0.149819
 C        -0.648338         1.367560         0.653579
 C         0.362057         2.512709         0.842353
 C        -0.387114         3.480466         1.818525
 C        -1.245307         2.435604         2.673151
 C        -0.936862         1.045367         2.183630
 C        -1.850017         3.563375         1.731757
 O        -2.575581         3.059669         0.699994
 C        -1.929209         2.073406        -0.176105
 H         0.654106         0.100821         0.295157
 H         1.298544         2.098901         1.286676
 H         0.766484         2.924013        -0.073583
 H         0.231312         4.302365         2.152716
 H        -1.370755         2.664056         3.710125
 H        -0.048558         0.649162         2.744222
 H        -1.691084         0.260890         2.283985
 H        -2.237604         4.493931         2.210042
 H        -2.657936         1.236344        -0.300755
 H        -1.648351         2.645142        -1.045645
