19
Iteration:  1400
 O        -0.236092         0.346128        -0.266962
 C        -0.654070         1.381010         0.667203
 C         0.381575         2.585371         0.744155
 C        -0.329936         3.512364         1.944415
 C        -1.236962         2.476434         2.739744
 C        -0.996519         1.137850         2.230867
 C        -1.845146         3.446029         1.798615
 O        -2.447957         3.083219         0.526855
 C        -1.935544         1.866204         0.032135
 H         0.446433        -0.281889         0.028295
 H         1.406543         2.147260         0.972161
 H         0.396947         2.872969        -0.350137
 H         0.256673         4.472347         2.259990
 H        -1.471566         2.517455         3.911904
 H        -0.303662         0.539081         2.781373
 H        -1.918614         0.475569         2.143345
 H        -2.320752         4.421250         2.037001
 H        -2.709898         1.099006        -0.038082
 H        -1.671076         2.070621        -1.001996
