19
Iteration:  4139charge 0 multiplicity 1
 O        -0.203219         0.181856         0.074585
 C        -0.705635         1.449177         0.543987
 C         0.306727         2.728697         0.440885
 C        -0.330623         3.575510         1.538849
 C        -0.921840         2.635865         2.563866
 C        -0.590630         1.290285         2.105705
 C        -1.874682         3.391188         1.821010
 O        -2.760507         2.873183         0.929699
 C        -2.214430         1.691934         0.235798
 H         0.412045         0.380893        -0.642172
 H         1.408917         2.569903         0.677557
 H         0.295655         3.209278        -0.624760
 H         0.228578         4.452317         2.058672
 H        -0.942142         2.914475         3.621981
 H         0.470744         1.101474         2.167771
 H        -1.163620         0.498085         2.366707
 H        -2.407886         4.168361         2.407986
 H        -2.807621         0.849778         0.585450
 H        -2.346117         1.871883        -0.883030
