19
Iteration:   892
 O        -0.188752         0.248340        -0.115143
 C        -0.630618         1.427365         0.612639
 C         0.407369         2.733329         0.765543
 C        -0.307664         3.482174         1.892939
 C        -1.181835         2.468082         2.732582
 C        -1.186646         1.135046         2.036195
 C        -1.777397         3.411249         1.779105
 O        -2.481473         3.046195         0.644424
 C        -1.935599         1.848641        -0.025635
 H         0.636528         0.065537         0.331122
 H         1.356985         2.266019         1.100613
 H         0.528554         3.282230        -0.171793
 H         0.203002         4.349624         2.349152
 H        -1.355084         2.674062         3.757858
 H        -0.459216         0.411320         2.451208
 H        -2.127740         0.644048         1.915784
 H        -2.272880         4.302245         2.201762
 H        -2.718669         1.000421        -0.037550
 H        -1.950058         2.279039        -1.095714
