19
Iteration:  4597
 O        -0.372095         0.201272        -0.078821
 C        -0.608361         1.422878         0.698738
 C         0.192144         2.705594         0.515508
 C        -0.351544         3.453548         1.662889
 C        -0.990841         2.617972         2.702913
 C        -0.761543         1.243295         2.195871
 C        -1.873111         3.453994         1.803742
 O        -2.631555         2.839621         0.809029
 C        -1.925015         1.873309         0.041045
 H         0.603040         0.098198        -0.099967
 H         1.344085         2.579354         0.659080
 H        -0.044227         3.211597        -0.405295
 H         0.271885         4.277694         1.907681
 H        -0.766277         3.008415         3.742423
 H         0.167828         0.887976         2.527528
 H        -1.500020         0.362706         2.312895
 H        -2.166773         4.470628         2.136776
 H        -2.603060         1.003724        -0.091653
 H        -1.677227         2.246169        -1.018972
