19
Iteration:  2770charge 0 multiplicity 1
 O        -0.235685         0.221552         0.024202
 C        -0.683962         1.451825         0.599564
 C         0.296221         2.653533         0.571705
 C        -0.297996         3.556467         1.679803
 C        -1.027055         2.539394         2.679867
 C        -0.857938         1.171518         2.054473
 C        -1.849963         3.493840         1.846724
 O        -2.628499         2.935361         0.788312
 C        -2.006520         1.788865         0.089222
 H         0.375026         0.305870        -0.720517
 H         1.370838         2.340980         0.694024
 H         0.225184         3.190163        -0.430763
 H         0.307072         4.414375         2.042971
 H        -0.982515         2.749341         3.770540
 H         0.089173         0.656146         2.400563
 H        -1.716935         0.482149         2.165540
 H        -2.302576         4.457999         2.337220
 H        -2.806838         0.997484         0.220518
 H        -1.844818         2.082447        -0.932230
