19
Iteration:   277charge 0 multiplicity 1
 O        -0.355611         0.277654        -0.205436
 C        -0.656097         1.392791         0.666647
 C         0.411997         2.628462         0.832589
 C        -0.284581         3.438270         1.948526
 C        -1.213162         2.565614         2.673748
 C        -1.048101         1.103174         2.143631
 C        -1.801589         3.497559         1.738769
 O        -2.545610         2.964437         0.644468
 C        -1.813147         1.946117        -0.095264
 H         0.552812        -0.059410         0.061673
 H         1.415448         2.150082         1.006372
 H         0.263739         3.221172        -0.120368
 H         0.328499         4.291581         2.535659
 H        -1.202343         2.873463         3.660298
 H        -0.213666         0.595561         2.753829
 H        -1.973782         0.403892         2.231702
 H        -2.241202         4.297920         2.220834
 H        -2.565258         1.216875        -0.417667
 H        -1.331238         2.328210        -1.071005
