19
Iteration:  4051charge 0 multiplicity 1
 O        -0.057975         0.253678         0.069882
 C        -0.725233         1.434247         0.585069
 C         0.147948         2.709869         0.392530
 C        -0.363042         3.677190         1.524178
 C        -0.848988         2.625757         2.583179
 C        -0.624728         1.180691         2.110825
 C        -1.845989         3.417066         1.912990
 O        -2.761198         2.876656         0.913606
 C        -2.195723         1.738272         0.159395
 H        -0.396068        -0.431209        -0.510135
 H         1.197918         2.369505         0.658649
 H         0.310953         2.993003        -0.722061
 H         0.194545         4.540296         1.945698
 H        -0.667448         2.889885         3.629900
 H         0.390961         0.770616         2.483774
 H        -1.380351         0.546393         2.412202
 H        -2.309020         4.199962         2.346750
 H        -2.770960         0.844783         0.512671
 H        -2.231275         1.854535        -0.906453
