19
Iteration:  4175charge 0 multiplicity 1
 O        -0.166814         0.248395        -0.067654
 C        -0.695335         1.352948         0.684161
 C         0.037070         2.746578         0.357899
 C        -0.379959         3.599359         1.536129
 C        -0.797801         2.695904         2.703885
 C        -0.746498         1.258299         2.306620
 C        -1.851419         3.368375         1.844227
 O        -2.559058         2.844235         0.846515
 C        -2.059944         1.681358         0.148270
 H        -0.389769         0.540676        -0.957074
 H         1.137473         2.652461         0.266367
 H        -0.402704         3.154683        -0.643933
 H         0.240942         4.387906         1.888387
 H        -0.677317         3.070804         3.722849
 H         0.209462         0.758729         2.718333
 H        -1.504585         0.586336         2.688957
 H        -2.385494         4.259854         2.311025
 H        -2.813698         0.808014         0.279618
 H        -2.101694         1.913298        -0.905460
