19
Iteration:  1517charge 0 multiplicity 1
 O        -0.182379         0.305058        -0.121206
 C        -0.613199         1.446610         0.632717
 C         0.418605         2.497933         0.841640
 C        -0.363361         3.383874         1.780421
 C        -1.242122         2.531532         2.681904
 C        -0.995546         1.094167         2.065201
 C        -1.815571         3.541593         1.782302
 O        -2.636990         3.104193         0.660236
 C        -1.900902         1.906324        -0.054365
 H         0.525804        -0.166374         0.299597
 H         1.307830         2.225559         1.425401
 H         0.810361         3.014897        -0.047476
 H         0.270236         4.167366         2.201499
 H        -1.212192         2.522344         3.848995
 H        -0.104457         0.461314         2.528732
 H        -1.847822         0.441143         2.125280
 H        -2.375979         4.415464         2.193039
 H        -2.811859         1.311164        -0.136375
 H        -1.548196         2.298253        -1.033759
