19
Iteration:  2685charge 0 multiplicity 1
 O        -0.141261         0.356991        -0.224008
 C        -0.638888         1.416188         0.630941
 C         0.336093         2.595419         0.767696
 C        -0.258938         3.508535         1.776081
 C        -1.050345         2.580652         2.596009
 C        -0.842282         1.164848         2.170375
 C        -1.822619         3.550489         1.678980
 O        -2.622199         2.999222         0.653478
 C        -2.137511         1.718912         0.260555
 H        -0.886033        -0.221608        -0.418042
 H         1.275738         2.168565         1.108760
 H         0.325304         3.079818        -0.285527
 H         0.369792         4.322813         2.217675
 H        -1.198516         2.459074         3.723703
 H         0.081661         0.774487         2.567701
 H        -1.692817         0.502107         2.408082
 H        -2.295688         4.500093         2.155502
 H        -2.713513         0.944818         0.714742
 H        -2.302747         1.417889        -0.845710
