19
Iteration:  3326
 O        -0.288897         0.282109        -0.127451
 C        -0.628492         1.468881         0.638835
 C         0.244957         2.692379         0.573448
 C        -0.360839         3.554011         1.661898
 C        -0.995889         2.575598         2.706962
 C        -0.751066         1.162704         2.109016
 C        -1.893420         3.421069         1.798879
 O        -2.564646         2.963133         0.757697
 C        -2.071377         1.730000         0.205570
 H         0.675099         0.206850        -0.320774
 H         1.277557         2.501564         0.821948
 H         0.195712         3.200626        -0.435757
 H         0.152694         4.465929         1.933015
 H        -0.910416         2.591540         3.738494
 H         0.160824         0.636820         2.540384
 H        -1.570281         0.446878         2.157395
 H        -2.355308         4.318500         2.127645
 H        -2.530379         0.803329         0.666800
 H        -2.206264         1.708179        -0.852542
