19
Iteration:  4591
 O        -0.320211         0.158581        -0.065666
 C        -0.641241         1.414161         0.655771
 C         0.243143         2.706628         0.492336
 C        -0.360847         3.461638         1.646038
 C        -1.035003         2.620846         2.724621
 C        -0.713716         1.178364         2.196389
 C        -1.858631         3.479533         1.770365
 O        -2.652503         2.886810         0.801932
 C        -1.995518         1.918484         0.088166
 H         0.642997         0.044527         0.128495
 H         1.284985         2.528503         0.621216
 H         0.119876         3.238112        -0.493422
 H         0.222579         4.364865         2.037298
 H        -0.672300         2.839641         3.686299
 H         0.332713         0.898542         2.665691
 H        -1.403390         0.404841         2.287865
 H        -2.448794         4.284439         2.278029
 H        -2.649393         1.062941        -0.190653
 H        -1.772243         2.300645        -0.886180
