19
Iteration:   494charge 0 multiplicity 1
 O        -0.218055         0.254784        -0.139484
 C        -0.620681         1.442767         0.653065
 C         0.432943         2.571719         0.800866
 C        -0.282649         3.413999         1.844235
 C        -1.319696         2.391808         2.713687
 C        -0.942872         1.099627         2.140988
 C        -1.787949         3.457578         1.730074
 O        -2.605356         3.169508         0.581081
 C        -1.961886         1.998309        -0.047096
 H         0.478672        -0.153523         0.346876
 H         1.377435         2.111321         1.344243
 H         0.814961         2.948456        -0.165537
 H         0.307085         4.362946         2.343047
 H        -1.648017         2.661047         3.722980
 H        -0.122424         0.570665         2.738325
 H        -1.679664         0.357546         2.196290
 H        -2.303382         4.329801         2.257062
 H        -2.836572         1.290833        -0.018243
 H        -1.659428         2.285827        -1.076608
