19
Iteration:  1367
 O        -0.122282         0.281125         0.003065
 C        -0.712505         1.444233         0.620071
 C         0.221967         2.673909         0.666724
 C        -0.288024         3.419058         1.946911
 C        -1.197014         2.381671         2.706804
 C        -0.984484         1.046293         2.020660
 C        -1.788122         3.497481         1.805373
 O        -2.416042         3.161269         0.547488
 C        -2.049016         1.880861        -0.047040
 H         0.458496        -0.018292         0.692254
 H         1.265741         2.291690         0.844669
 H         0.367768         3.228185        -0.294908
 H         0.351626         4.200391         2.477786
 H        -1.270141         2.443289         3.875140
 H        -0.142161         0.579134         2.507437
 H        -2.005716         0.495905         2.045548
 H        -2.338074         4.399316         2.180461
 H        -2.790789         1.103248         0.081533
 H        -1.946866         2.139588        -1.064960
