19
Iteration:  3954
 O        -0.050349         0.313200        -0.035876
 C        -0.681566         1.316358         0.635260
 C         0.110030         2.666531         0.428656
 C        -0.416875         3.532517         1.478330
 C        -0.874491         2.631020         2.637235
 C        -0.607759         1.169317         2.219510
 C        -1.824095         3.496402         1.853149
 O        -2.758277         2.827594         0.972650
 C        -2.208240         1.870168         0.057360
 H         0.217495        -0.413239         0.530236
 H         1.144353         2.626546         0.383467
 H        -0.061365         2.989097        -0.628028
 H         0.086416         4.421562         1.844488
 H        -0.432223         2.839504         3.619477
 H         0.500465         0.983109         2.376168
 H        -1.368124         0.533236         2.638760
 H        -2.249078         4.355171         2.178336
 H        -2.949864         0.986078         0.086930
 H        -2.153323         2.291529        -0.929862
