19
Iteration:  4499charge 0 multiplicity 1
 O        -0.181626         0.242986         0.002763
 C        -0.706583         1.383562         0.637684
 C         0.204560         2.701044         0.520702
 C        -0.323394         3.551373         1.600814
 C        -0.983839         2.538065         2.728731
 C        -0.730522         1.145711         2.189016
 C        -1.826874         3.479022         1.839651
 O        -2.609488         3.012296         0.728066
 C        -2.122685         1.720140         0.097211
 H        -0.227576         0.447578        -0.956801
 H         1.347770         2.483812         0.736368
 H         0.189709         3.201413        -0.448584
 H         0.248417         4.348743         1.941939
 H        -0.825463         2.978105         3.743280
 H         0.268332         0.942797         2.597994
 H        -1.393185         0.281592         2.545851
 H        -2.325680         4.323904         2.258042
 H        -2.872865         0.872937         0.266125
 H        -2.115415         1.861479        -0.941408
