19
Iteration:  1886charge 0 multiplicity 1
 O        -0.424862         0.203126        -0.133272
 C        -0.591228         1.455236         0.659572
 C         0.380991         2.566482         0.842199
 C        -0.299121         3.417402         1.910465
 C        -1.225926         2.501074         2.686587
 C        -0.979137         1.186519         2.094143
 C        -1.901344         3.465666         1.782287
 O        -2.483595         3.068300         0.604091
 C        -1.755806         1.973521        -0.094403
 H         0.467275        -0.099170         0.018731
 H         1.403822         2.303937         1.210280
 H         0.423223         3.109767        -0.099658
 H         0.255973         4.278172         2.367373
 H        -1.437920         2.466292         3.758639
 H        -0.099539         0.745675         2.591284
 H        -1.719222         0.301656         2.210914
 H        -2.611739         4.205401         1.975035
 H        -2.417898         1.155084        -0.276886
 H        -1.510612         2.459415        -1.067728
