19
Iteration:   617charge 0 multiplicity 1
 O        -0.308323         0.386274        -0.185705
 C        -0.633942         1.390167         0.746650
 C         0.320085         2.591252         0.758673
 C        -0.298971         3.382576         1.827091
 C        -1.217798         2.528523         2.756526
 C        -1.032286         1.032172         2.210783
 C        -1.866674         3.456548         1.788236
 O        -2.418185         3.030891         0.564724
 C        -1.863457         1.955699        -0.100301
 H         0.386921        -0.188969         0.073556
 H         1.431235         2.523606         1.095507
 H         0.435151         3.207204        -0.114295
 H         0.181168         4.232406         2.168314
 H        -1.266596         2.670905         3.825845
 H        -0.254409         0.496992         2.835159
 H        -1.958752         0.550666         2.277868
 H        -2.230627         4.381743         2.085924
 H        -2.658169         1.185378        -0.332862
 H        -1.561652         2.281256        -1.042573
