19
Iteration:  1582charge 0 multiplicity 1
 O        -0.088025         0.287836        -0.079095
 C        -0.741680         1.327075         0.684065
 C         0.254967         2.693530         0.725293
 C        -0.308313         3.442181         1.885252
 C        -1.200495         2.410531         2.678651
 C        -1.063799         1.052275         2.074615
 C        -1.806219         3.474671         1.790717
 O        -2.323935         3.235064         0.546638
 C        -2.075533         1.837193        -0.012896
 H         0.682600        -0.008006         0.481791
 H         1.342104         2.442649         0.609656
 H         0.180123         3.338992        -0.184905
 H         0.275230         4.208591         2.436747
 H        -1.534732         2.601960         3.779346
 H        -0.184729         0.469893         2.617613
 H        -1.929254         0.397733         2.195551
 H        -2.376756         4.195193         2.392025
 H        -2.950998         1.158472         0.124526
 H        -1.845101         2.042765        -1.055167
