19
Iteration:  2560
 O        -0.159203         0.376838        -0.197252
 C        -0.669345         1.374480         0.685333
 C         0.271483         2.484484         0.633427
 C        -0.362943         3.490569         1.662858
 C        -1.111282         2.607100         2.754688
 C        -0.804123         1.168940         2.274242
 C        -1.841065         3.531859         1.797424
 O        -2.581329         2.937877         0.689348
 C        -2.002264         1.850778         0.080654
 H        -0.894285        -0.159340        -0.501852
 H         1.281377         2.087259         0.931157
 H         0.420746         2.889387        -0.385684
 H         0.227911         4.416779         1.841457
 H        -1.016878         2.776836         3.850013
 H         0.138830         0.809457         2.803097
 H        -1.579033         0.461045         2.627708
 H        -2.348628         4.412711         2.065364
 H        -2.753806         1.026467        -0.018867
 H        -1.625237         2.205916        -0.954819
