19
Iteration:  1300
 O        -0.289157         0.324348        -0.210599
 C        -0.607237         1.471519         0.587604
 C         0.485376         2.610151         0.836601
 C        -0.299754         3.412363         1.869950
 C        -1.244511         2.523379         2.745850
 C        -0.995208         1.195659         2.197481
 C        -1.830511         3.432224         1.744927
 O        -2.552995         2.997019         0.597501
 C        -1.948824         1.891571        -0.033522
 H         0.575220        -0.151035        -0.062414
 H         1.403952         2.178659         1.294817
 H         0.855189         3.023780        -0.125744
 H         0.081170         4.177161         2.374048
 H        -1.378035         2.608534         3.811126
 H        -0.324174         0.513881         2.687921
 H        -1.960514         0.695445         2.001874
 H        -2.237648         4.358350         2.127220
 H        -2.632587         1.104635         0.171647
 H        -1.858322         1.970059        -1.071264
