19
Iteration:  1697
 O        -0.103664         0.295862        -0.000655
 C        -0.747145         1.387155         0.583139
 C         0.350224         2.550640         0.836099
 C        -0.202041         3.382550         1.878880
 C        -1.110263         2.505676         2.645258
 C        -1.157944         1.143724         2.051099
 C        -1.805307         3.507721         1.750574
 O        -2.607377         2.976286         0.726214
 C        -1.957192         2.100055        -0.209046
 H         0.648470        -0.095253         0.519359
 H         1.191661         1.953314         1.160845
 H         0.502131         3.071171        -0.094957
 H         0.203268         4.284221         2.267047
 H        -1.032405         2.321891         3.741416
 H        -0.410387         0.406726         2.558157
 H        -2.144906         0.539711         2.104411
 H        -2.134201         4.577689         2.182770
 H        -2.688877         1.326344        -0.463539
 H        -1.439564         2.390462        -1.221880
