19
Iteration:   357charge 0 multiplicity 1
 O        -0.294359         0.299389        -0.224797
 C        -0.623389         1.402876         0.647446
 C         0.389939         2.586387         0.799785
 C        -0.286799         3.414880         1.896388
 C        -1.221671         2.530347         2.762668
 C        -1.129482         1.185604         2.130590
 C        -1.848498         3.503399         1.766442
 O        -2.482206         2.941222         0.655774
 C        -1.840443         1.959438        -0.084766
 H         0.533193        -0.192863         0.064623
 H         1.433819         2.331665         1.034660
 H         0.579099         3.085083        -0.255404
 H         0.274407         4.141138         2.332363
 H        -1.227935         2.556632         3.902940
 H        -0.384996         0.669963         2.744061
 H        -2.137057         0.571279         2.277929
 H        -2.212824         4.541492         2.093605
 H        -2.548971         1.169202        -0.315000
 H        -1.399526         2.338844        -1.008634
