19
Iteration:  2115charge 0 multiplicity 1
 O        -0.313378         0.277481        -0.063489
 C        -0.715999         1.441694         0.661452
 C         0.470834         2.544180         0.873266
 C        -0.267226         3.445063         1.863670
 C        -1.223630         2.449381         2.657736
 C        -0.884675         1.104991         2.087360
 C        -1.802209         3.449248         1.693783
 O        -2.583041         3.125550         0.574675
 C        -1.972211         1.985262        -0.086798
 H         0.197453        -0.224069         0.585712
 H         1.231250         1.997944         1.380503
 H         0.902006         2.974866        -0.053927
 H         0.176763         4.255565         2.390494
 H        -1.370492         2.720463         3.698087
 H         0.055972         0.778394         2.594638
 H        -1.524401         0.172420         2.165943
 H        -2.455161         4.205967         2.164831
 H        -2.806382         1.292461        -0.225915
 H        -1.564167         2.403911        -1.099515
