19
Iteration:   508charge 0 multiplicity 1
 O        -0.260111         0.296263        -0.128403
 C        -0.618624         1.402272         0.654165
 C         0.446904         2.534896         0.840667
 C        -0.315955         3.374820         1.903066
 C        -1.183237         2.547721         2.665243
 C        -1.026299         1.086399         2.100752
 C        -1.858596         3.454162         1.750191
 O        -2.569898         3.125605         0.593372
 C        -1.909607         1.961252        -0.065745
 H         0.575890        -0.111963         0.242151
 H         1.434550         2.145848         1.120397
 H         0.424005         3.248621         0.052550
 H         0.072406         4.235456         2.273655
 H        -1.228529         2.492082         3.785738
 H        -0.176879         0.614049         2.617519
 H        -1.972762         0.554515         2.177008
 H        -2.273306         4.406621         2.228080
 H        -2.550940         1.004129        -0.178878
 H        -1.678067         2.384227        -1.149974
