19
Iteration:  1622charge 0 multiplicity 1
 O        -0.163995         0.360411        -0.112435
 C        -0.690497         1.418468         0.608121
 C         0.336103         2.555163         0.767192
 C        -0.296071         3.371374         1.904448
 C        -1.230109         2.470910         2.692531
 C        -1.016435         1.093201         2.141426
 C        -1.829557         3.454177         1.777332
 O        -2.412542         3.173942         0.533016
 C        -2.034987         1.859921        -0.002576
 H         0.646037         0.089978         0.308697
 H         1.305825         2.193194         1.160850
 H         0.369127         3.107459        -0.182250
 H         0.213278         4.200612         2.334641
 H        -1.411559         2.563895         3.781393
 H        -0.124853         0.704117         2.565259
 H        -1.900646         0.351578         2.251936
 H        -2.244654         4.511249         2.178480
 H        -2.862299         1.078323         0.094420
 H        -1.858527         2.035759        -1.098833
