19
Iteration:  2857
 O        -0.227904         0.145336         0.150683
 C        -0.626325         1.493131         0.516236
 C         0.313385         2.702506         0.505533
 C        -0.325446         3.529812         1.731006
 C        -1.008429         2.505474         2.706732
 C        -0.853923         1.196055         2.040044
 C        -1.775670         3.446109         1.860658
 O        -2.719603         2.908966         0.839971
 C        -1.996768         1.946714        -0.023469
 H        -0.153252         0.107579        -0.828200
 H         1.410312         2.336234         0.681594
 H         0.409519         3.184051        -0.431569
 H         0.117783         4.483072         1.930162
 H        -1.001084         2.714367         3.783871
 H         0.002727         0.548215         2.395872
 H        -1.731559         0.537508         2.180945
 H        -2.398129         4.251138         2.366398
 H        -2.690464         1.036592        -0.061382
 H        -1.765133         2.148454        -1.097591
