19
Iteration:  2931charge 0 multiplicity 1
 O        -0.270272         0.322075        -0.162170
 C        -0.680642         1.400724         0.638777
 C         0.263293         2.722435         0.648694
 C        -0.332550         3.518545         1.812692
 C        -1.176635         2.457760         2.649323
 C        -0.719388         1.096453         2.175318
 C        -1.810990         3.537864         1.696212
 O        -2.389359         3.102524         0.530909
 C        -2.182608         1.637180         0.376039
 H         0.132765         0.675947        -0.959294
 H         1.318461         2.275858         0.792368
 H         0.380516         3.149915        -0.323344
 H         0.241201         4.285573         2.284275
 H        -1.308124         2.555239         3.734020
 H         0.261242         0.784854         2.544728
 H        -1.359244         0.251752         2.185815
 H        -2.495044         4.309458         2.217947
 H        -2.675795         1.057945         1.124225
 H        -2.499434         1.471220        -0.677116
