19
Iteration:  3279
 O        -0.159926         0.288098        -0.005523
 C        -0.691518         1.392886         0.642674
 C         0.246114         2.612359         0.561873
 C        -0.368755         3.482805         1.622565
 C        -0.982971         2.573900         2.680950
 C        -0.753844         1.187543         2.159885
 C        -1.803127         3.490937         1.811718
 O        -2.719801         2.812159         0.858643
 C        -2.025597         1.958356         0.009800
 H        -0.680885         0.170382        -0.838425
 H         1.323020         2.284415         0.922055
 H         0.359774         3.123544        -0.466349
 H         0.104302         4.506299         1.779811
 H        -0.890579         2.898137         3.772316
 H         0.245896         0.841725         2.464195
 H        -1.434248         0.379966         2.485700
 H        -2.329248         4.307648         2.360730
 H        -2.507648         0.992008        -0.306730
 H        -1.796236         2.555638        -0.889936
