19
Iteration:  1568
 O        -0.223780         0.339180        -0.105439
 C        -0.691079         1.457598         0.616119
 C         0.173930         2.636905         0.711205
 C        -0.313345         3.404017         1.978922
 C        -1.173402         2.453945         2.755683
 C        -1.001519         1.070045         2.171887
 C        -1.815399         3.442292         1.806689
 O        -2.329180         3.105454         0.443261
 C        -1.929312         1.890738        -0.039708
 H         0.495378        -0.046126         0.408783
 H         1.225036         2.312215         0.975199
 H         0.064454         3.173598        -0.259933
 H         0.205484         4.214622         2.402815
 H        -1.121152         2.503171         3.848328
 H        -0.170968         0.551795         2.560036
 H        -1.945695         0.415812         2.255523
 H        -2.505258         4.356190         2.119754
 H        -2.770676         1.213190         0.173019
 H        -1.855300         1.989031        -1.113726
