19
Iteration:  2176charge 0 multiplicity 1
 O         0.043259         0.306408         0.007417
 C        -0.724214         1.412803         0.614278
 C         0.274606         2.532803         0.732503
 C        -0.256773         3.346559         1.819823
 C        -1.030714         2.523024         2.772594
 C        -1.229252         1.114966         2.089003
 C        -1.764749         3.530612         1.742721
 O        -2.634472         3.031304         0.699481
 C        -1.942208         2.031160        -0.147251
 H        -0.572986        -0.427446        -0.161307
 H         1.253607         1.989735         0.908221
 H         0.378522         2.889156        -0.307935
 H         0.454168         4.225729         2.150131
 H        -1.024211         2.800008         3.874518
 H        -0.483854         0.547762         2.648820
 H        -2.226289         0.743669         2.076103
 H        -2.210542         4.410307         2.295883
 H        -2.673864         1.221471        -0.364657
 H        -1.581449         2.355113        -1.114618
