19
Iteration:   328charge 0 multiplicity 1
 O        -0.119699         0.309734        -0.026592
 C        -0.686173         1.429013         0.613013
 C         0.362727         2.511423         0.759469
 C        -0.267250         3.441502         1.843465
 C        -1.077910         2.461212         2.690694
 C        -1.195159         1.116028         2.019104
 C        -1.804308         3.508839         1.769277
 O        -2.611571         2.986745         0.717274
 C        -1.936959         2.062914        -0.152876
 H         0.577982        -0.079649         0.513878
 H         1.292627         2.077224         1.210399
 H         0.613847         2.899376        -0.203678
 H         0.435244         4.251879         2.223402
 H        -1.219267         2.395815         3.817352
 H        -0.501544         0.443308         2.557327
 H        -2.109836         0.681252         2.219064
 H        -2.240848         4.419038         2.244539
 H        -2.696516         1.267422        -0.385867
 H        -1.428956         2.589575        -0.962374
