19
Iteration:  4178charge 0 multiplicity 1
 O        -0.148684         0.257085        -0.085533
 C        -0.698777         1.348557         0.713652
 C         0.029825         2.738823         0.350419
 C        -0.366314         3.616153         1.536588
 C        -0.797019         2.693253         2.686001
 C        -0.756458         1.257690         2.305622
 C        -1.849686         3.363547         1.871883
 O        -2.560945         2.841171         0.828873
 C        -2.071706         1.690560         0.152505
 H        -0.434745         0.508629        -0.985028
 H         1.089376         2.535309         0.280985
 H        -0.353103         3.106520        -0.562050
 H         0.193541         4.440446         1.864036
 H        -0.631986         3.033022         3.708377
 H         0.185273         0.837358         2.713575
 H        -1.566168         0.584882         2.829164
 H        -2.358398         4.166074         2.250842
 H        -2.789701         0.843532         0.302015
 H        -2.085670         1.919020        -0.891768
