19
Iteration:  3089charge 0 multiplicity 1
 O        -0.314672         0.248878        -0.053196
 C        -0.676022         1.479084         0.611891
 C         0.207756         2.773600         0.624342
 C        -0.307605         3.545219         1.750801
 C        -0.971750         2.505746         2.697280
 C        -0.844622         1.140775         2.101805
 C        -1.784829         3.484826         1.752255
 O        -2.598423         2.916084         0.769854
 C        -1.992688         1.783541         0.025859
 H         0.607196        -0.011301         0.010548
 H         1.262528         2.390337         0.940210
 H         0.396950         3.146678        -0.362625
 H         0.098133         4.534154         2.096321
 H        -0.915468         2.591440         3.782091
 H         0.027868         0.629178         2.484964
 H        -1.596733         0.312846         2.164851
 H        -2.406645         4.303834         2.244406
 H        -2.567350         0.848591         0.249008
 H        -2.101112         2.120064        -1.051267
