19
Iteration:  1976
 O        -0.293301         0.313482        -0.086797
 C        -0.686015         1.487671         0.633560
 C         0.385187         2.563061         0.785125
 C        -0.212989         3.444086         1.942302
 C        -1.169963         2.511849         2.776990
 C        -1.091433         1.158967         2.092377
 C        -1.833482         3.440379         1.750693
 O        -2.543135         2.949469         0.612842
 C        -1.852090         1.965781        -0.188295
 H         0.348798        -0.163871         0.462471
 H         1.444050         2.225579         1.111130
 H         0.499733         3.144718        -0.163789
 H         0.428815         4.183766         2.368052
 H        -1.361808         2.531484         3.848296
 H        -0.412455         0.431761         2.555253
 H        -2.107643         0.632900         2.158962
 H        -2.216938         4.449105         2.105490
 H        -2.512504         1.120834        -0.492729
 H        -1.436829         2.434223        -1.092002
