19
Iteration:  2622charge 0 multiplicity 1
 O        -0.103041         0.174808         0.090531
 C        -0.657939         1.441850         0.579090
 C         0.340947         2.671617         0.601292
 C        -0.304723         3.590581         1.606156
 C        -1.033441         2.494746         2.634830
 C        -0.948112         1.149315         2.013320
 C        -1.761187         3.507694         1.829676
 O        -2.690041         2.826515         0.910465
 C        -2.053140         2.026188        -0.078299
 H        -0.676783        -0.440353         0.545705
 H         1.422379         2.371323         0.844640
 H         0.531054         3.154684        -0.371139
 H         0.208499         4.461618         2.100228
 H        -0.948283         2.391017         3.794979
 H        -0.128280         0.633266         2.521696
 H        -1.887755         0.567962         2.221677
 H        -2.272900         4.449654         2.264724
 H        -2.784262         1.192708        -0.383134
 H        -1.993297         2.665229        -0.987973
