19
Iteration:   242charge 0 multiplicity 1
 O        -0.213613         0.298784        -0.153722
 C        -0.660449         1.413169         0.682530
 C         0.349149         2.517424         0.860103
 C        -0.303725         3.468437         1.839470
 C        -1.186991         2.487016         2.676494
 C        -0.997441         1.033891         2.098967
 C        -1.836537         3.426144         1.755299
 O        -2.512695         3.208007         0.568600
 C        -1.978600         1.907724        -0.021703
 H         0.687439         0.008181         0.199461
 H         1.320848         2.083254         1.240625
 H         0.690591         3.030538        -0.016257
 H         0.155435         4.451107         2.207502
 H        -1.254827         2.689025         3.762292
 H        -0.019881         0.621080         2.582392
 H        -1.872569         0.431584         2.285917
 H        -2.448729         4.221417         2.250904
 H        -2.829360         1.155932         0.037460
 H        -1.671044         2.217052        -1.097213
