19
Iteration:  4820charge 0 multiplicity 1
 O        -0.244909         0.185839         0.017887
 C        -0.697533         1.406553         0.588844
 C         0.185806         2.609601         0.563561
 C        -0.304508         3.525662         1.628772
 C        -1.003368         2.600959         2.672777
 C        -0.629592         1.248819         2.147038
 C        -1.820440         3.510796         1.789932
 O        -2.730754         2.886775         0.821238
 C        -2.073871         1.845312         0.097121
 H         0.422603         0.517985        -0.619740
 H         1.300415         2.436282         0.725447
 H         0.202999         3.137436        -0.410912
 H         0.258620         4.433704         1.783375
 H        -0.777893         2.822425         3.752363
 H         0.480692         1.029102         2.359574
 H        -1.220682         0.332025         2.476727
 H        -2.508151         4.130022         2.396594
 H        -2.754286         0.933810         0.025697
 H        -1.918609         2.142900        -0.966697
