19
Iteration:  1713
 O        -0.080622         0.313681        -0.114880
 C        -0.717702         1.425697         0.591599
 C         0.334555         2.522644         0.739004
 C        -0.273878         3.387969         1.834461
 C        -1.098223         2.533983         2.823708
 C        -1.300787         1.172931         2.091095
 C        -1.745487         3.516296         1.821552
 O        -2.539138         2.940256         0.707489
 C        -1.872636         1.975081        -0.197989
 H         0.605989         0.074900         0.541279
 H         1.263374         2.047382         1.139145
 H         0.456100         3.026662        -0.260255
 H         0.422961         4.128987         2.295554
 H        -1.174882         2.807429         3.882897
 H        -0.796900         0.365208         2.533106
 H        -2.349557         0.990596         2.079474
 H        -2.285968         4.286307         2.173027
 H        -2.637051         1.242057        -0.514940
 H        -1.727653         2.607243        -1.000371
