19
Iteration:  1325
 O        -0.251183         0.341541        -0.161097
 C        -0.690400         1.352364         0.679834
 C         0.279478         2.645725         0.790470
 C        -0.341617         3.478254         1.863321
 C        -1.171780         2.488515         2.680035
 C        -0.978577         1.010847         2.159794
 C        -1.843639         3.551381         1.791074
 O        -2.470808         3.092507         0.566360
 C        -1.860949         1.861518        -0.006903
 H         0.575688        -0.127312         0.017697
 H         1.277059         2.285679         1.070114
 H         0.454946         3.044072        -0.230126
 H         0.248026         4.336965         2.412167
 H        -1.440955         2.580510         3.803830
 H        -0.122611         0.410089         2.519568
 H        -1.906102         0.293911         2.046856
 H        -2.226845         4.519322         2.179326
 H        -2.743953         1.205561         0.000924
 H        -1.510588         1.908740        -1.006618
