19
Iteration:   306charge 0 multiplicity 1
 O        -0.173228         0.265318        -0.020255
 C        -0.654421         1.466080         0.550164
 C         0.372189         2.516720         0.758462
 C        -0.332267         3.407281         1.771883
 C        -1.127018         2.483117         2.730835
 C        -1.153898         1.104745         2.053601
 C        -1.853645         3.471937         1.828676
 O        -2.545414         3.023157         0.735362
 C        -1.882939         2.070612        -0.176344
 H         0.593711        -0.026625         0.521328
 H         1.272623         2.008544         1.157425
 H         0.704864         2.972545        -0.127210
 H         0.181875         4.308938         2.178310
 H        -1.035818         2.864921         3.790467
 H        -0.479471         0.373030         2.529411
 H        -2.043904         0.582416         1.976606
 H        -2.218252         4.310818         2.461566
 H        -2.614378         1.232088        -0.253395
 H        -1.517640         2.570027        -1.091819
