19
Iteration:  5000
 O        -0.102119         0.223300        -0.065471
 C        -0.732189         1.327089         0.638288
 C         0.086765         2.597260         0.519092
 C        -0.371227         3.567755         1.586141
 C        -0.952800         2.575125         2.665940
 C        -0.667287         1.159618         2.148647
 C        -1.856237         3.503496         1.919125
 O        -2.634726         3.081000         0.705559
 C        -2.098703         1.780943         0.167609
 H         0.836567         0.463021        -0.080778
 H         1.144388         2.402139         0.735678
 H        -0.123355         2.865426        -0.560267
 H         0.362688         4.324460         1.867786
 H        -0.804363         2.778899         3.721848
 H         0.291506         0.579478         2.564905
 H        -1.428538         0.557317         2.503561
 H        -2.461631         4.357412         2.362044
 H        -2.911494         1.030289         0.595586
 H        -2.253679         1.696744        -0.896957
