19
Iteration:  2633charge 0 multiplicity 1
 O        -0.101298         0.157977         0.036554
 C        -0.677861         1.402884         0.584926
 C         0.245092         2.661876         0.574550
 C        -0.287289         3.539234         1.712714
 C        -0.968585         2.573723         2.682219
 C        -0.880490         1.142501         2.083211
 C        -1.837425         3.493079         1.789375
 O        -2.692257         2.904807         0.863548
 C        -2.021016         2.002810        -0.085242
 H        -0.527281        -0.579005         0.511076
 H         1.269319         2.284603         0.921610
 H         0.200107         3.111350        -0.431124
 H         0.296322         4.461086         1.990492
 H        -0.948204         2.788142         3.831600
 H        -0.032403         0.518652         2.362791
 H        -1.799430         0.511272         2.089389
 H        -2.473213         4.207487         2.390757
 H        -2.870223         1.358851        -0.488437
 H        -1.518199         2.594131        -0.880422
