19
Iteration:  4088charge 0 multiplicity 1
 O        -0.203094         0.311995        -0.077287
 C        -0.635735         1.409663         0.630426
 C         0.086870         2.708235         0.341425
 C        -0.246653         3.624216         1.572869
 C        -0.908957         2.672222         2.673212
 C        -0.712709         1.255813         2.311591
 C        -1.829316         3.488141         1.806605
 O        -2.627102         2.725984         0.907455
 C        -2.090676         1.641053         0.182182
 H        -0.391068         0.503122        -1.003849
 H         1.143811         2.556668         0.385722
 H        -0.284732         3.068564        -0.635889
 H         0.293250         4.558847         1.828110
 H        -0.707149         2.828904         3.730486
 H         0.124306         0.834838         3.059936
 H        -1.622831         0.528802         2.308377
 H        -2.522683         4.393033         2.145617
 H        -2.821023         0.750898         0.375815
 H        -2.110657         1.826395        -0.890351
