19
Iteration:  4992charge 0 multiplicity 1
 O        -0.123161         0.234390        -0.095160
 C        -0.688405         1.367440         0.687181
 C         0.058832         2.651912         0.508393
 C        -0.353572         3.542199         1.639674
 C        -0.896594         2.645731         2.717853
 C        -0.752501         1.134520         2.116533
 C        -1.813797         3.447808         1.853956
 O        -2.605472         3.062953         0.676002
 C        -2.147399         1.689327         0.235493
 H         0.822038         0.474835        -0.076071
 H         1.137066         2.436064         0.676678
 H        -0.081338         3.083622        -0.503201
 H         0.261960         4.430290         1.784434
 H        -0.877230         2.984940         3.827361
 H         0.103926         0.645461         2.415260
 H        -1.605799         0.460940         2.297496
 H        -2.254897         4.357819         2.370390
 H        -2.821333         0.924899         0.481040
 H        -2.141697         1.752245        -0.880851
