19
Iteration:  4480
 O        -0.254111         0.189810         0.082621
 C        -0.702339         1.493010         0.599843
 C         0.273568         2.642774         0.559987
 C        -0.356362         3.578244         1.680489
 C        -0.866671         2.547657         2.654762
 C        -0.636170         1.222090         2.029865
 C        -1.886284         3.369764         1.779632
 O        -2.649488         2.997574         0.709580
 C        -2.167779         1.824587         0.165936
 H         0.546965         0.246542        -0.455276
 H         1.194694         2.274112         0.934500
 H         0.386557         3.094060        -0.418822
 H        -0.059396         4.570345         1.970985
 H        -1.103939         2.545929         3.765080
 H         0.314967         0.652064         2.342762
 H        -1.435180         0.593143         2.326180
 H        -2.452102         4.155239         2.369750
 H        -2.745589         0.934842         0.563174
 H        -2.322676         1.856685        -0.922167
