19
Iteration:  4211
 O        -0.066312         0.339750        -0.063884
 C        -0.667189         1.444843         0.625368
 C         0.186153         2.705345         0.458347
 C        -0.355204         3.525162         1.545881
 C        -0.908545         2.628361         2.659590
 C        -0.657652         1.189246         2.165736
 C        -1.814757         3.464035         1.724579
 O        -2.699189         2.899270         0.877585
 C        -2.236655         1.659995         0.266409
 H        -0.689900        -0.243875        -0.493136
 H         1.196262         2.366326         0.685078
 H         0.232020         3.160925        -0.509694
 H         0.205900         4.323734         1.990119
 H        -0.827614         2.976343         3.691253
 H         0.400894         0.935033         2.335908
 H        -1.489861         0.464194         2.574368
 H        -2.266531         4.330959         2.008111
 H        -2.769194         0.842284         0.886480
 H        -2.527400         1.675952        -0.740398
