19
Iteration:  1339
 O        -0.136739         0.286819        -0.139127
 C        -0.682319         1.390854         0.679227
 C         0.214062         2.575569         0.704842
 C        -0.361574         3.395292         1.873330
 C        -1.187794         2.440040         2.785885
 C        -0.949793         1.067466         2.185741
 C        -1.821414         3.471004         1.781445
 O        -2.430236         3.173363         0.529511
 C        -2.006093         1.955969        -0.089570
 H         0.580635         0.025055         0.446457
 H         1.248557         2.285601         0.978898
 H         0.239830         3.139321        -0.216985
 H         0.290156         4.206371         2.350976
 H        -1.096531         2.636714         3.819167
 H        -0.076411         0.627130         2.756416
 H        -1.853012         0.502494         2.407354
 H        -2.444330         4.236685         2.212362
 H        -2.788567         1.132229        -0.147064
 H        -1.722733         2.352294        -1.120073
