19
Iteration:  3078charge 0 multiplicity 1
 O        -0.398842         0.240072        -0.064093
 C        -0.594045         1.443782         0.618315
 C         0.301855         2.684954         0.606622
 C        -0.357821         3.557712         1.714190
 C        -1.034618         2.572655         2.770821
 C        -0.766333         1.174382         2.106977
 C        -1.839267         3.454288         1.800346
 O        -2.607124         2.834545         0.765981
 C        -1.997237         1.856853         0.013466
 H         0.525934         0.179330        -0.355232
 H         1.377101         2.465373         0.920422
 H         0.243437         3.372689        -0.210367
 H         0.326137         4.427789         1.958906
 H        -0.896917         2.646350         3.858811
 H         0.117786         0.703585         2.508271
 H        -1.701342         0.575921         2.279123
 H        -2.388997         4.360579         2.233179
 H        -2.704794         1.019602        -0.188113
 H        -1.599392         2.169326        -1.004501
