19
Iteration:  2644
 O        -0.130616         0.239676        -0.052479
 C        -0.718936         1.366080         0.615999
 C         0.198257         2.585142         0.559205
 C        -0.353667         3.464951         1.718421
 C        -0.945564         2.600474         2.724289
 C        -0.862273         1.186075         2.160649
 C        -1.855250         3.432187         1.854153
 O        -2.665067         2.940731         0.766113
 C        -1.925279         2.000872        -0.064376
 H        -0.439679        -0.602660         0.367387
 H         1.326989         2.367374         0.710520
 H         0.219913         3.154367        -0.379065
 H         0.266201         4.350798         1.983289
 H        -0.953787         2.954449         3.818894
 H         0.015620         0.689109         2.573087
 H        -1.750405         0.660759         2.570019
 H        -2.293881         4.342690         2.300793
 H        -2.640403         1.139129        -0.333220
 H        -1.701280         2.482308        -1.054122
