19
Iteration:  4015
 O        -0.191816         0.320130        -0.184935
 C        -0.654817         1.355071         0.681915
 C         0.144545         2.697406         0.414388
 C        -0.283617         3.619384         1.590034
 C        -0.914059         2.716782         2.676513
 C        -0.593637         1.264846         2.270123
 C        -1.847553         3.424419         1.797986
 O        -2.730617         2.752650         0.892188
 C        -2.067711         1.702595         0.176756
 H        -0.968132        -0.281691        -0.270426
 H         1.250463         2.376728         0.445440
 H        -0.188530         3.132832        -0.530095
 H         0.172151         4.525003         1.899964
 H        -0.937783         3.051781         3.742202
 H         0.260088         0.855933         2.730458
 H        -1.398736         0.623705         2.716973
 H        -2.310589         4.421472         2.166356
 H        -2.673556         0.822746         0.230186
 H        -2.073882         1.993683        -0.941395
