19
Iteration:  4362charge 0 multiplicity 1
 O        -0.336263         0.237144        -0.134198
 C        -0.697674         1.384042         0.669826
 C         0.168494         2.734452         0.476479
 C        -0.322620         3.565014         1.618006
 C        -0.923472         2.646172         2.685109
 C        -0.629536         1.229179         2.259728
 C        -1.843885         3.397552         1.796657
 O        -2.646944         2.814321         0.836231
 C        -2.025711         1.811364         0.107574
 H         0.380623        -0.060454         0.447342
 H         1.278114         2.603944         0.547119
 H        -0.148157         3.200358        -0.542353
 H         0.190210         4.529225         1.578228
 H        -1.004531         3.061344         3.720159
 H         0.380586         0.846720         2.553847
 H        -1.329157         0.526016         2.635614
 H        -2.416691         4.169899         2.304198
 H        -2.714800         1.022890        -0.029763
 H        -1.834174         2.112254        -1.009355
