19
Iteration:  4098
 O        -0.206184         0.307078        -0.127840
 C        -0.620612         1.359012         0.749086
 C         0.116303         2.683653         0.417230
 C        -0.352722         3.605040         1.530898
 C        -0.886707         2.710185         2.618148
 C        -0.689193         1.226527         2.274819
 C        -1.822359         3.481953         1.795293
 O        -2.644219         2.764976         0.881232
 C        -2.117021         1.661676         0.215322
 H        -0.185660         0.758755        -0.982137
 H         1.163998         2.446260         0.296150
 H        -0.115059         3.134111        -0.609985
 H         0.358213         4.445298         1.740467
 H        -0.860981         3.042309         3.651628
 H         0.320580         0.782193         2.743637
 H        -1.582444         0.734628         2.744925
 H        -2.472152         4.138498         2.490538
 H        -2.788598         0.711933         0.254555
 H        -1.997237         1.964816        -0.790039
