19
Iteration:  1813
 O        -0.183341         0.288200        -0.192698
 C        -0.621647         1.365188         0.665457
 C         0.297146         2.663250         0.763498
 C        -0.270786         3.450139         1.934484
 C        -1.238163         2.492478         2.734907
 C        -1.193514         1.088318         2.081464
 C        -1.745532         3.487645         1.819770
 O        -2.359019         3.113301         0.527514
 C        -1.936411         1.856189        -0.006396
 H         0.451977        -0.292023         0.310527
 H         1.402369         2.559167         0.814549
 H        -0.066213         3.275496        -0.104327
 H         0.389315         4.162504         2.494271
 H        -1.499706         2.627368         3.803575
 H        -0.500632         0.420921         2.593332
 H        -2.127004         0.548744         2.161374
 H        -2.287417         4.471277         2.178303
 H        -2.778655         1.146327         0.338139
 H        -2.022176         1.880383        -1.081519
