19
Iteration:  4822charge 0 multiplicity 1
 O        -0.235017         0.196200         0.013854
 C        -0.702051         1.409762         0.585149
 C         0.199071         2.582385         0.585770
 C        -0.302056         3.531754         1.613035
 C        -0.990413         2.623690         2.664534
 C        -0.638269         1.237255         2.145970
 C        -1.832674         3.490178         1.789034
 O        -2.740847         2.889441         0.826764
 C        -2.082345         1.856461         0.094469
 H         0.477882         0.493339        -0.568723
 H         1.314502         2.397384         0.747027
 H         0.193373         3.139898        -0.432738
 H         0.323324         4.407673         1.809082
 H        -0.773911         2.827790         3.770244
 H         0.486726         1.061759         2.357515
 H        -1.173301         0.398096         2.425763
 H        -2.544201         4.102937         2.407472
 H        -2.794961         0.931994         0.028751
 H        -1.958203         2.141260        -0.925513
