19
Iteration:  3771charge 0 multiplicity 1
 O        -0.252860         0.352071        -0.225939
 C        -0.683958         1.341745         0.640895
 C         0.148126         2.641989         0.499747
 C        -0.372716         3.568933         1.505378
 C        -0.886112         2.718938         2.751188
 C        -0.542313         1.251313         2.287295
 C        -1.869740         3.437192         1.777954
 O        -2.726765         2.816795         0.889735
 C        -2.126295         1.677910         0.213513
 H         0.696278         0.282298        -0.060071
 H         1.266253         2.373256         0.543518
 H         0.250442         3.014233        -0.504825
 H        -0.117825         4.606913         1.567774
 H        -0.613402         3.016277         3.801285
 H         0.493656         1.014663         2.599014
 H        -1.266209         0.463395         2.689326
 H        -2.378580         4.251747         2.093634
 H        -2.772250         0.726261         0.231222
 H        -2.134869         1.945755        -0.894721
