19
Iteration:  4136charge 0 multiplicity 1
 O        -0.198203         0.201755         0.063733
 C        -0.694772         1.446369         0.554328
 C         0.327145         2.710058         0.435167
 C        -0.351986         3.558184         1.519801
 C        -0.924019         2.638181         2.591339
 C        -0.549752         1.297073         2.095074
 C        -1.882693         3.424899         1.835546
 O        -2.757783         2.874206         0.920701
 C        -2.255745         1.685078         0.226014
 H         0.446828         0.351170        -0.670015
 H         1.367593         2.548461         0.791851
 H         0.330064         3.180350        -0.494816
 H         0.205672         4.382977         1.946712
 H        -0.930646         3.021375         3.612728
 H         0.449847         1.009132         2.232899
 H        -1.229102         0.438781         2.476131
 H        -2.384746         4.058891         2.453165
 H        -2.835966         0.855269         0.518545
 H        -2.385396         1.871472        -0.901361
