19
Iteration:  1233
 O        -0.235051         0.220079        -0.061563
 C        -0.627923         1.466150         0.632916
 C         0.348760         2.630170         0.765954
 C        -0.342095         3.438009         1.893646
 C        -1.072592         2.505844         2.750985
 C        -1.074663         1.209328         1.984004
 C        -1.825317         3.450348         1.773912
 O        -2.583252         2.937098         0.688336
 C        -1.883471         1.979017        -0.139098
 H         0.648217        -0.071263         0.189362
 H         1.407859         2.365387         0.998290
 H         0.452181         3.302903        -0.116575
 H         0.169841         4.176827         2.477626
 H        -1.051434         2.506020         3.840138
 H        -0.572614         0.433433         2.583819
 H        -2.115239         0.832373         2.059908
 H        -2.238147         4.431086         2.065055
 H        -2.458225         1.103857        -0.172103
 H        -1.660250         2.312999        -1.109025
