19
Iteration:  2129charge 0 multiplicity 1
 O        -0.301220         0.276942        -0.162997
 C        -0.589911         1.428605         0.617600
 C         0.473255         2.520198         0.901783
 C        -0.273126         3.390289         1.915482
 C        -1.139737         2.568433         2.701497
 C        -0.976299         1.133988         2.144117
 C        -1.886064         3.530042         1.736706
 O        -2.640887         3.054751         0.562753
 C        -1.931784         1.960094        -0.102649
 H        -0.102985        -0.518025         0.386459
 H         1.450598         2.095314         1.302727
 H         0.757373         3.088471         0.036001
 H         0.254640         4.191088         2.343517
 H        -1.175875         2.501788         3.763216
 H        -0.103373         0.603963         2.494057
 H        -1.983158         0.692581         2.345512
 H        -2.170913         4.456516         2.116505
 H        -2.489482         1.025434        -0.177713
 H        -1.720168         2.240589        -1.195685
