19
Iteration:  1348
 O        -0.088388         0.289304        -0.057630
 C        -0.740239         1.383659         0.565445
 C         0.256824         2.573261         0.746533
 C        -0.319125         3.350487         1.885969
 C        -1.149130         2.448727         2.723656
 C        -1.019970         1.126409         2.211488
 C        -1.860201         3.383285         1.812085
 O        -2.419564         3.206620         0.554518
 C        -2.017036         1.969556        -0.107118
 H         0.604930        -0.064502         0.496075
 H         1.311937         2.332425         0.623264
 H         0.165492         3.230629        -0.147614
 H         0.294367         4.368494         2.105059
 H        -1.330445         2.694053         3.814244
 H         0.031798         0.844701         2.456374
 H        -1.787452         0.241181         2.254199
 H        -2.414690         4.155701         2.365573
 H        -2.929524         1.333186        -0.026656
 H        -1.862811         2.165267        -1.156453
