19
Iteration:  1815
 O        -0.172306         0.297857        -0.196262
 C        -0.630511         1.367501         0.667939
 C         0.301503         2.677677         0.761770
 C        -0.281746         3.450080         1.937298
 C        -1.243878         2.512622         2.746257
 C        -1.217783         1.085634         2.078150
 C        -1.736671         3.478686         1.817085
 O        -2.350575         3.101629         0.533778
 C        -1.942034         1.841324        -0.018472
 H         0.416968        -0.245235         0.341324
 H         1.485145         2.516362         0.794755
 H        -0.053657         3.266367        -0.139709
 H         0.448355         4.070157         2.435204
 H        -1.488423         2.587817         3.831348
 H        -0.488244         0.414722         2.619612
 H        -2.087951         0.534316         2.165696
 H        -2.204961         4.511547         2.206777
 H        -2.764729         1.177123         0.356056
 H        -2.106794         1.876043        -1.108081
