19
Iteration:   457
 O        -0.185715         0.313123        -0.195462
 C        -0.666620         1.402000         0.672355
 C         0.265824         2.624002         0.739474
 C        -0.305946         3.436987         1.949809
 C        -1.127752         2.484310         2.793821
 C        -1.076416         1.084528         2.174404
 C        -1.811984         3.421491         1.796787
 O        -2.389465         3.137283         0.459117
 C        -1.984564         1.915322        -0.042601
 H         0.389504        -0.278441         0.301033
 H         1.280608         2.293444         1.049309
 H         0.357916         3.325585        -0.149928
 H         0.281633         4.179611         2.462084
 H        -1.444800         2.526007         3.832258
 H        -0.367643         0.502569         2.745380
 H        -2.161334         0.657180         2.133521
 H        -2.369184         4.181226         2.260948
 H        -2.703958         1.103154         0.010011
 H        -1.797184         1.945445        -1.089582
