19
Iteration:  1538charge 0 multiplicity 1
 O        -0.318948         0.265623        -0.219211
 C        -0.626153         1.390957         0.666963
 C         0.410889         2.599160         0.873055
 C        -0.311781         3.530283         1.912219
 C        -1.257882         2.473587         2.636844
 C        -0.932536         1.083197         2.166114
 C        -1.839601         3.450842         1.712868
 O        -2.502729         3.065682         0.548825
 C        -1.913481         1.973079         0.006138
 H         0.412640        -0.191137         0.285634
 H         1.449838         2.346612         1.210016
 H         0.667119         2.962127        -0.143103
 H         0.015867         4.428549         2.406139
 H        -1.338310         2.509927         3.796481
 H         0.065240         0.624355         2.639805
 H        -1.715874         0.327023         2.356374
 H        -2.501996         4.238437         2.242857
 H        -2.771927         1.252717         0.043700
 H        -1.727336         2.249250        -1.020903
