19
Iteration:  2056
 O        -0.145624         0.356320        -0.071130
 C        -0.720126         1.388240         0.644623
 C         0.255779         2.612670         0.745745
 C        -0.218549         3.415628         1.970211
 C        -1.246520         2.500591         2.740096
 C        -1.200091         1.096877         2.083873
 C        -1.644240         3.477804         1.737716
 O        -2.354664         3.121502         0.561528
 C        -2.046362         1.781370        -0.047641
 H         0.780758         0.575810        -0.204746
 H         1.284800         2.278687         0.945701
 H         0.212754         3.219957        -0.209813
 H         0.391827         4.348407         2.237073
 H        -1.355503         2.606192         3.838252
 H        -0.510863         0.415278         2.631733
 H        -2.112882         0.605691         1.887506
 H        -2.242560         4.268145         2.141440
 H        -2.837722         1.048004         0.282558
 H        -1.991459         1.771940        -1.098311
