19
Iteration:  3212
 O        -0.170295         0.333159        -0.154129
 C        -0.696208         1.419367         0.663312
 C         0.235549         2.595430         0.575998
 C        -0.294637         3.449211         1.669439
 C        -1.018802         2.618880         2.740101
 C        -0.809815         1.140813         2.180470
 C        -1.833246         3.461718         1.803446
 O        -2.657174         2.905755         0.792921
 C        -2.066037         1.882213         0.032738
 H         0.462980        -0.118646         0.421658
 H         1.402421         2.464854         0.710759
 H         0.211303         3.065923        -0.461803
 H         0.093037         4.455513         1.751968
 H        -0.899162         2.694647         3.870724
 H         0.146183         0.885733         2.582711
 H        -1.630718         0.405111         2.424221
 H        -2.331810         4.315523         2.251026
 H        -2.823550         1.040010         0.024927
 H        -1.832765         2.212984        -0.988407
