19
Iteration:  3412
 O        -0.268522         0.224917        -0.068449
 C        -0.637008         1.413914         0.631036
 C         0.291429         2.715024         0.511531
 C        -0.369361         3.598322         1.684533
 C        -0.965418         2.580810         2.758103
 C        -0.662369         1.235821         2.084900
 C        -1.862256         3.441139         1.768310
 O        -2.702395         2.939731         0.770566
 C        -2.012512         1.664722         0.210989
 H        -0.337610         0.306379        -1.063895
 H         1.290440         2.370494         0.903394
 H         0.265191         3.482442        -0.329044
 H         0.009554         4.547800         1.929134
 H        -0.936380         2.647251         3.795326
 H         0.169464         0.796599         2.491179
 H        -1.365970         0.490896         2.220281
 H        -2.415895         4.263546         2.189662
 H        -2.634230         0.849988         0.497041
 H        -2.135750         1.866568        -0.858639
