19
Iteration:  1211
 O        -0.252218         0.326613        -0.146759
 C        -0.695522         1.451627         0.643283
 C         0.438397         2.595919         0.820202
 C        -0.249643         3.556654         1.833076
 C        -1.251461         2.490526         2.716000
 C        -1.097067         1.100024         2.083789
 C        -1.764994         3.478142         1.781938
 O        -2.535084         2.894514         0.691930
 C        -1.939654         1.942080        -0.125791
 H         0.672138         0.113316         0.156386
 H         1.383579         2.178550         1.278127
 H         0.878421         3.085802        -0.083806
 H         0.292348         4.508262         2.085896
 H        -1.311186         2.799070         3.776612
 H        -0.179169         0.579200         2.519990
 H        -1.890259         0.316557         2.251048
 H        -2.423768         4.251500         2.281420
 H        -2.598971         1.108563        -0.103120
 H        -1.748241         2.199081        -1.125339
