19
Iteration:  2485
 O        -0.176691         0.353948        -0.173923
 C        -0.709971         1.306399         0.775463
 C         0.133936         2.662917         0.585189
 C        -0.260467         3.461017         1.785586
 C        -1.117306         2.542247         2.719546
 C        -0.852468         1.029972         2.323476
 C        -1.763255         3.479306         1.740564
 O        -2.490100         3.109636         0.573092
 C        -2.093157         1.795757         0.052546
 H         0.794593         0.154197        -0.021240
 H         1.207030         2.419046         0.538328
 H         0.067459         3.137108        -0.449369
 H         0.362713         4.297460         2.246383
 H        -1.254126         2.809690         3.809944
 H        -0.021475         0.528431         2.859908
 H        -1.759833         0.474397         2.450042
 H        -2.232951         4.376533         2.092554
 H        -2.936155         1.156797         0.153351
 H        -1.841010         1.957601        -1.064325
