19
Iteration:  1683charge 0 multiplicity 1
 O        -0.206620         0.245464        -0.024400
 C        -0.676040         1.453732         0.611396
 C         0.406557         2.526199         0.787349
 C        -0.304142         3.440232         1.828252
 C        -1.223607         2.454706         2.696445
 C        -1.055005         1.068149         2.025124
 C        -1.768040         3.488862         1.750885
 O        -2.605775         3.047191         0.695157
 C        -1.899257         2.052583        -0.109338
 H         0.504605         0.022487         0.586916
 H         1.432120         2.184738         1.227658
 H         0.751888         3.012608        -0.157223
 H         0.292554         4.224531         2.295874
 H        -1.491578         2.700839         3.679322
 H        -0.124286         0.552799         2.483702
 H        -1.925703         0.469964         2.116061
 H        -2.254175         4.317661         2.156734
 H        -2.629093         1.317863        -0.466987
 H        -1.564676         2.756185        -0.943327
