19
Iteration:  4563
 O        -0.138345         0.278903        -0.050966
 C        -0.716347         1.431151         0.623582
 C         0.203942         2.607175         0.657225
 C        -0.330378         3.541435         1.585001
 C        -0.919444         2.627267         2.644116
 C        -0.754973         1.185377         2.062853
 C        -1.802220         3.411478         1.814900
 O        -2.700804         3.008223         0.801787
 C        -2.133785         1.789978         0.082054
 H         0.208902        -0.305125         0.664658
 H         1.268465         2.286868         1.001386
 H         0.387228         2.990648        -0.340057
 H         0.220543         4.392335         1.804431
 H        -0.829397         2.592273         3.759770
 H         0.180496         0.868495         2.392451
 H        -1.590034         0.403165         2.269974
 H        -2.279323         4.170259         2.395537
 H        -2.745059         0.915607         0.246003
 H        -2.195854         2.029313        -1.051816
