19
Iteration:  3260charge 0 multiplicity 1
 O        -0.070404         0.256109        -0.024750
 C        -0.613979         1.440771         0.562462
 C         0.338547         2.672524         0.545731
 C        -0.351845         3.567388         1.595556
 C        -0.925292         2.591687         2.702388
 C        -0.975709         1.191392         2.088765
 C        -1.867885         3.446454         1.850133
 O        -2.712351         2.798685         0.974263
 C        -2.016443         1.885195         0.009872
 H        -0.789341        -0.291633        -0.406943
 H         1.323882         2.327509         0.684034
 H         0.412752         3.076553        -0.474277
 H         0.177086         4.472764         2.058924
 H        -0.697614         2.832097         3.730046
 H        -0.151213         0.511445         2.487387
 H        -1.994363         0.851016         2.139188
 H        -2.279952         4.437028         2.102929
 H        -2.786378         1.055528        -0.007161
 H        -1.967874         2.357728        -0.957446
