19
Iteration:   485charge 0 multiplicity 1
 O        -0.212875         0.298188        -0.121215
 C        -0.666134         1.430689         0.671484
 C         0.379686         2.518934         0.805771
 C        -0.328362         3.502420         1.794828
 C        -1.327825         2.437417         2.706908
 C        -0.945837         0.976196         2.092017
 C        -1.762811         3.508349         1.794951
 O        -2.504379         3.130552         0.558268
 C        -1.961320         2.009528        -0.038195
 H         0.413675        -0.153794         0.414286
 H         1.210715         2.103529         1.415331
 H         0.631664         3.057842        -0.065077
 H         0.319514         4.128887         2.410415
 H        -1.534231         2.547983         3.824538
 H         0.038062         0.861668         2.615196
 H        -1.605290         0.156444         2.185991
 H        -2.293358         4.469162         2.197707
 H        -2.747067         1.132612         0.035669
 H        -1.843224         2.297885        -1.177492
