19
Iteration:   602charge 0 multiplicity 1
 O        -0.292599         0.277410        -0.203127
 C        -0.662251         1.394474         0.599340
 C         0.352959         2.584619         0.851032
 C        -0.360476         3.449861         1.898323
 C        -1.106813         2.495403         2.779910
 C        -1.020150         1.125818         2.208742
 C        -1.834017         3.497904         1.770666
 O        -2.548622         3.057973         0.582915
 C        -1.839709         1.926708        -0.148088
 H         0.526970        -0.102947         0.183079
 H         1.181003         2.035348         1.234871
 H         0.596071         3.078078        -0.116702
 H         0.273497         4.383802         2.381895
 H        -1.164356         2.735590         3.864885
 H        -0.184729         0.525811         2.684556
 H        -1.976339         0.568885         2.213391
 H        -2.417819         4.376173         2.198007
 H        -2.562019         1.142372        -0.336779
 H        -1.407850         2.253629        -1.116501
