19
Iteration:   724charge 0 multiplicity 1
 O        -0.284778         0.279916        -0.201987
 C        -0.632412         1.455625         0.612876
 C         0.364086         2.543022         0.831737
 C        -0.354382         3.441996         1.901580
 C        -1.225555         2.495173         2.765285
 C        -0.944575         1.164657         2.129726
 C        -1.827371         3.437924         1.797541
 O        -2.420670         3.094853         0.549007
 C        -1.974996         1.906272        -0.046044
 H         0.452975        -0.182783         0.185429
 H         1.329728         2.352341         1.160943
 H         0.456958         3.238641         0.017997
 H         0.324518         4.234300         2.356997
 H        -1.496930         2.645898         3.786451
 H        -0.161596         0.598203         2.634152
 H        -1.822109         0.562053         2.083851
 H        -2.514620         4.108603         2.124015
 H        -2.637671         1.040234         0.068532
 H        -1.735506         2.132921        -1.098093
