19
Iteration:  3362charge 0 multiplicity 1
 O         0.000254         0.384675        -0.155619
 C        -0.732297         1.397731         0.700164
 C         0.006194         2.673512         0.506473
 C        -0.293866         3.438331         1.724140
 C        -0.951890         2.532215         2.758475
 C        -0.729160         1.152331         2.160024
 C        -1.793482         3.507073         1.815635
 O        -2.565655         3.009469         0.660937
 C        -2.188931         1.716161         0.147067
 H         0.035737        -0.354712         0.484974
 H         1.020830         2.446415         0.446062
 H        -0.415066         3.122416        -0.350490
 H         0.252680         4.376178         1.804726
 H        -0.969341         2.791022         3.889191
 H         0.288771         0.629064         2.497370
 H        -1.508436         0.358744         2.547179
 H        -2.226734         4.513369         2.099563
 H        -3.009256         0.959125         0.462305
 H        -2.445123         1.906756        -0.919848
