19
Iteration:   486charge 0 multiplicity 1
 O        -0.213027         0.291758        -0.124001
 C        -0.661095         1.435769         0.674482
 C         0.390922         2.522021         0.801991
 C        -0.321142         3.501317         1.801752
 C        -1.329101         2.430545         2.710071
 C        -0.941240         0.986552         2.093588
 C        -1.758736         3.503080         1.792365
 O        -2.518451         3.131424         0.556210
 C        -1.961355         2.010795        -0.038674
 H         0.427012        -0.157344         0.414536
 H         1.176093         2.119255         1.407583
 H         0.648244         3.048310        -0.072193
 H         0.281304         4.096670         2.364975
 H        -1.565549         2.573022         3.823920
 H         0.009903         0.847286         2.642075
 H        -1.628755         0.136485         2.195227
 H        -2.291690         4.452369         2.189062
 H        -2.768715         1.173306         0.049722
 H        -1.839275         2.323095        -1.174562
