19
Iteration:   964
 O        -0.290769         0.237519        -0.203966
 C        -0.602024         1.455845         0.692908
 C         0.405823         2.660647         0.845224
 C        -0.386550         3.458776         1.920946
 C        -1.167425         2.462963         2.648472
 C        -0.997821         1.105480         2.067384
 C        -1.835227         3.512594         1.742120
 O        -2.513275         3.025533         0.613616
 C        -1.922010         1.900199        -0.018959
 H         0.567807        -0.103355         0.149170
 H         1.288236         2.327010         1.424330
 H         0.608171         3.297283        -0.047455
 H         0.036410         4.121533         2.562600
 H        -1.068239         2.748134         3.745113
 H        -0.132605         0.590352         2.528024
 H        -1.985702         0.542510         2.095050
 H        -2.340396         4.600288         1.976350
 H        -2.660647         1.148404         0.048902
 H        -1.624323         1.898964        -1.028635
