19
Iteration:   707charge 0 multiplicity 1
 O        -0.277912         0.301003        -0.267854
 C        -0.649993         1.343012         0.675690
 C         0.305231         2.733527         0.714685
 C        -0.301505         3.415081         1.952598
 C        -1.271772         2.471875         2.771003
 C        -1.049566         1.071274         2.251608
 C        -1.824494         3.468523         1.789162
 O        -2.387285         3.126960         0.533433
 C        -1.849710         1.871657        -0.024638
 H         0.415940        -0.275307         0.073670
 H         1.401404         2.316421         0.828266
 H         0.235934         3.234292        -0.294181
 H         0.036275         4.322789         2.287662
 H        -1.380526         2.632452         3.881313
 H        -0.186816         0.607792         2.838831
 H        -1.848194         0.274359         2.434690
 H        -2.218403         4.558810         2.094749
 H        -2.638854         1.043638        -0.053502
 H        -1.704589         2.001607        -1.115868
