19
Iteration:  2907
 O        -0.207583         0.348918        -0.202470
 C        -0.637375         1.339212         0.695942
 C         0.165270         2.676903         0.630082
 C        -0.269013         3.461064         1.787819
 C        -1.067187         2.560596         2.711996
 C        -0.843634         1.123231         2.241502
 C        -1.833494         3.451726         1.772703
 O        -2.440665         3.071947         0.558847
 C        -2.112522         1.680543         0.239224
 H        -0.021021         0.902001        -0.993954
 H         1.243168         2.577247         0.560263
 H        -0.050251         3.125538        -0.398639
 H         0.441289         4.280627         2.080061
 H        -1.274297         2.777474         3.776713
 H         0.006500         0.631743         2.730241
 H        -1.732888         0.478456         2.313192
 H        -2.336224         4.452907         2.085654
 H        -2.726540         1.042439         0.838764
 H        -2.229181         1.534323        -0.852096
