19
Iteration:   408
 O        -0.144642         0.255966        -0.089807
 C        -0.697647         1.403073         0.602843
 C         0.311334         2.502200         0.776850
 C        -0.290361         3.405228         1.924722
 C        -1.241488         2.481882         2.718457
 C        -0.977902         1.045879         2.090300
 C        -1.868317         3.506479         1.798564
 O        -2.479723         3.227926         0.568824
 C        -1.992134         1.951412        -0.092398
 H         0.730571         0.169475         0.345490
 H         1.324647         2.144103         1.051765
 H         0.484573         3.073170        -0.111278
 H         0.451453         4.177081         2.371957
 H        -1.264703         2.619890         3.787472
 H        -0.010416         0.672199         2.518551
 H        -1.854227         0.442236         2.235558
 H        -2.371364         4.310033         2.364702
 H        -2.760276         1.125044        -0.036845
 H        -1.899375         2.034777        -1.236537
