19
Iteration:  4023charge 0 multiplicity 1
 O        -0.162407         0.319910        -0.116365
 C        -0.619786         1.365060         0.700270
 C         0.108211         2.631620         0.455861
 C        -0.377324         3.558013         1.578000
 C        -0.877591         2.697307         2.659572
 C        -0.541102         1.255518         2.223891
 C        -1.839559         3.428946         1.807837
 O        -2.718602         2.803050         0.887526
 C        -2.150947         1.778921         0.160547
 H        -0.744853        -0.337758        -0.542653
 H         1.187931         2.588022         0.471441
 H        -0.132781         2.910399        -0.541453
 H         0.085740         4.569286         1.600463
 H        -0.761699         2.868087         3.714884
 H         0.363180         1.033476         2.736456
 H        -1.475148         0.621513         2.476289
 H        -2.382175         4.365910         2.195622
 H        -2.801557         0.904816         0.242668
 H        -1.896495         1.977845        -0.919452
