19
Iteration:   623
 O        -0.292422         0.377352        -0.189546
 C        -0.657027         1.386567         0.743506
 C         0.350627         2.601207         0.770453
 C        -0.315012         3.414418         1.823911
 C        -1.239583         2.451304         2.758674
 C        -1.047465         1.065558         2.197232
 C        -1.824565         3.445965         1.747424
 O        -2.418005         3.052766         0.578438
 C        -1.865937         1.968678        -0.041348
 H         0.443350        -0.180819         0.168688
 H         1.383669         2.366792         0.907043
 H         0.246972         3.016497        -0.291164
 H         0.291404         4.369118         2.269455
 H        -1.347666         2.718069         3.829776
 H        -0.186692         0.623165         2.716761
 H        -2.037019         0.495505         2.187554
 H        -2.406638         4.375890         2.081999
 H        -2.525306         1.107380        -0.182876
 H        -1.542533         2.282602        -1.116824
