19
Iteration:  2227
 O        -0.335106         0.221805        -0.117461
 C        -0.628473         1.347931         0.702812
 C         0.328664         2.617364         0.777427
 C        -0.347152         3.451350         1.844041
 C        -1.126088         2.520711         2.730077
 C        -0.889453         1.106975         2.191092
 C        -1.873750         3.508676         1.755336
 O        -2.490604         3.066636         0.558792
 C        -1.880085         1.921821        -0.020156
 H        -0.266887         0.513033        -1.058572
 H         1.379373         2.300880         0.980147
 H         0.328501         3.157255        -0.164446
 H         0.281089         4.293570         2.275265
 H        -1.302106         2.609928         3.836836
 H        -0.184260         0.546716         2.842755
 H        -1.928913         0.597522         2.261374
 H        -2.272398         4.478047         2.095365
 H        -2.628368         1.130472        -0.045427
 H        -1.432748         2.113938        -1.056241
