19
Iteration:   269
 O        -0.387149         0.335581        -0.197687
 C        -0.580452         1.448471         0.674678
 C         0.377259         2.572558         0.781249
 C        -0.304389         3.402689         1.929014
 C        -1.232010         2.546511         2.720489
 C        -1.037114         1.064160         2.200674
 C        -1.822053         3.513583         1.724099
 O        -2.493287         2.980710         0.632545
 C        -1.808343         1.938447        -0.111905
 H         0.517959        -0.096230        -0.074753
 H         1.372298         2.216876         1.158510
 H         0.607215         3.262442        -0.201541
 H         0.315766         4.158821         2.380908
 H        -1.313458         2.770156         3.800874
 H        -0.151170         0.732292         2.681988
 H        -1.963117         0.379786         2.363042
 H        -2.502094         4.313502         2.030549
 H        -2.533885         1.148993        -0.244677
 H        -1.617573         2.274512        -1.082317
