19
Iteration:  4416charge 0 multiplicity 1
 O        -0.027136         0.369373        -0.108225
 C        -0.737703         1.371989         0.693720
 C         0.183222         2.638774         0.517052
 C        -0.318634         3.563130         1.643209
 C        -0.859719         2.600219         2.679178
 C        -0.822956         1.223122         2.221336
 C        -1.780474         3.485563         1.776187
 O        -2.680545         2.873225         0.787779
 C        -2.174272         1.695046         0.142876
 H        -0.776308        -0.037555        -0.569726
 H         1.191696         2.328711         0.696017
 H         0.041220         2.902780        -0.571884
 H         0.241457         4.479446         1.947720
 H        -0.521686         2.901503         3.712769
 H         0.053358         0.718817         2.709679
 H        -1.672133         0.679062         2.519347
 H        -2.380584         4.392774         2.065476
 H        -2.893822         0.948151         0.343449
 H        -2.060925         1.927820        -1.008079
