19
Iteration:  4347charge 0 multiplicity 1
 O        -0.277966         0.352399        -0.153973
 C        -0.690547         1.406589         0.700248
 C         0.133742         2.649046         0.475751
 C        -0.378527         3.671506         1.530792
 C        -0.840519         2.643736         2.773420
 C        -0.666335         1.209629         2.306129
 C        -1.781279         3.441735         1.831726
 O        -2.663689         2.807070         0.808638
 C        -2.059558         1.725677         0.019116
 H        -0.261422        -0.551823         0.235177
 H         1.117381         2.284188         0.664043
 H         0.056792         2.980479        -0.515589
 H         0.059225         4.555406         1.927700
 H        -0.725970         2.818955         3.821892
 H         0.332931         0.822602         2.623460
 H        -1.427038         0.495103         2.702657
 H        -2.407417         4.249667         2.206195
 H        -2.641002         0.763677         0.042756
 H        -1.878330         2.116150        -1.034981
