19
Iteration:   355
 O        -0.281082         0.288419        -0.227688
 C        -0.635152         1.406830         0.643772
 C         0.393708         2.589131         0.796585
 C        -0.291180         3.413731         1.886200
 C        -1.233082         2.545332         2.774832
 C        -1.128509         1.176891         2.129257
 C        -1.836821         3.492426         1.759143
 O        -2.481884         2.941151         0.668506
 C        -1.853643         1.966438        -0.093058
 H         0.516080        -0.168133         0.105021
 H         1.431118         2.373371         1.050612
 H         0.544063         3.115842        -0.192527
 H         0.343445         4.153156         2.349970
 H        -1.215502         2.559161         3.856172
 H        -0.431098         0.587777         2.758487
 H        -2.114311         0.610799         2.287640
 H        -2.180587         4.493807         2.044492
 H        -2.550140         1.163647        -0.283497
 H        -1.359751         2.404722        -1.001415
