19
Iteration:    17
 O        -0.341304         0.338165        -0.269349
 C        -0.647881         1.381165         0.789489
 C         0.428362         2.560779         0.840232
 C        -0.320085         3.623067         1.826878
 C        -1.089214         2.512505         2.736416
 C        -1.112137         1.027369         2.218011
 C        -1.833433         3.420646         1.760124
 O        -2.500605         3.040623         0.541946
 C        -1.827306         1.941473        -0.075617
 H         0.436329        -0.108791         0.018193
 H         1.414690         2.281342         1.273265
 H         0.428043         2.852665        -0.264812
 H         0.195952         4.515534         2.307234
 H        -1.248023         2.763635         3.810868
 H        -0.364605         0.335649         2.665604
 H        -2.132464         0.445365         2.324787
 H        -2.439106         4.031770         2.488103
 H        -2.643268         1.091087        -0.193399
 H        -1.591623         2.192205        -1.153596
