19
Iteration:   397charge 0 multiplicity 1
 O        -0.185377         0.257289        -0.105778
 C        -0.695491         1.364980         0.652019
 C         0.410206         2.586620         0.819017
 C        -0.349599         3.394327         1.860409
 C        -1.182057         2.441008         2.707419
 C        -0.999514         1.067125         2.145049
 C        -1.783292         3.462009         1.773769
 O        -2.508069         3.221997         0.555739
 C        -2.046147         1.968416        -0.120289
 H         0.700081         0.046248         0.125566
 H         1.260394         2.089219         1.333245
 H         0.683383         3.106542        -0.060999
 H        -0.102719         4.439375         2.302999
 H        -1.352470         2.507014         3.755188
 H        -0.059071         0.631487         2.609345
 H        -1.649369         0.244320         2.361906
 H        -2.263836         4.322485         2.245048
 H        -2.891888         1.229468         0.006496
 H        -1.715261         2.364006        -1.141880
