19
Iteration:    13charge 0 multiplicity 1
 O        -0.311737         0.334305        -0.223969
 C        -0.671009         1.379659         0.736749
 C         0.413633         2.553311         0.824662
 C        -0.302228         3.587566         1.854555
 C        -1.111321         2.498976         2.738640
 C        -1.109319         1.046508         2.189047
 C        -1.803383         3.438505         1.753190
 O        -2.501094         3.057691         0.571859
 C        -1.855045         1.952947        -0.083409
 H         0.541638        -0.126947         0.128793
 H         1.373958         2.369574         1.170294
 H         0.394314         2.778088        -0.280826
 H         0.049834         4.397458         2.311282
 H        -1.224727         2.844927         3.765244
 H        -0.332564         0.481009         2.634201
 H        -2.055168         0.366184         2.196019
 H        -2.500996         3.958444         2.365722
 H        -2.618892         1.093686        -0.095087
 H        -1.592374         2.141982        -1.136249
