19
Iteration:  3877charge 0 multiplicity 1
 O        -0.057545         0.419828        -0.196385
 C        -0.666776         1.388861         0.713110
 C         0.174768         2.617355         0.448857
 C        -0.341423         3.509239         1.491528
 C        -0.923499         2.719352         2.628558
 C        -0.555120         1.221157         2.275755
 C        -1.876005         3.470231         1.784979
 O        -2.736261         2.856226         0.930327
 C        -2.235871         1.664690         0.241423
 H        -0.707664        -0.279664        -0.324638
 H         1.179477         2.201251         0.488100
 H        -0.094170         2.869170        -0.608591
 H         0.049561         4.406690         1.876147
 H        -0.807139         2.930343         3.727243
 H         0.548532         1.085963         2.568203
 H        -1.163595         0.346565         2.670804
 H        -2.400300         4.310653         2.179749
 H        -2.942428         0.775325         0.315514
 H        -2.104959         1.908750        -0.846408
