19
Iteration:  3239charge 0 multiplicity 1
 O        -0.064652         0.330182        -0.120266
 C        -0.697896         1.472072         0.628848
 C         0.209182         2.669916         0.554901
 C        -0.231247         3.537828         1.660882
 C        -0.886645         2.605322         2.697805
 C        -1.052996         1.222713         2.107380
 C        -1.789557         3.506653         1.780145
 O        -2.668657         2.726477         0.939682
 C        -2.018844         1.824674         0.007884
 H        -0.340691        -0.501752         0.273021
 H         1.188147         2.497785         0.809747
 H         0.276586         3.113174        -0.411034
 H         0.425354         4.460618         1.800610
 H        -0.953717         2.582028         3.758800
 H        -0.330431         0.538299         2.652863
 H        -2.101964         1.007144         2.123422
 H        -2.430957         4.120610         2.430129
 H        -2.783653         1.066175        -0.001098
 H        -1.826432         2.194813        -1.002989
