19
Iteration:  4064
 O        -0.055213         0.236172         0.058549
 C        -0.645827         1.423642         0.584483
 C         0.170754         2.741978         0.418253
 C        -0.333685         3.569054         1.574658
 C        -0.822088         2.644217         2.640185
 C        -0.713456         1.288789         2.064069
 C        -1.837089         3.471303         1.800042
 O        -2.705948         2.812543         0.919721
 C        -2.225333         1.679974         0.214350
 H        -0.768877         0.031501        -0.587581
 H         1.240501         2.551608         0.513742
 H        -0.125426         3.321648        -0.523262
 H         0.212495         4.568015         1.689411
 H        -0.742837         2.734956         3.705462
 H         0.314280         0.734880         2.409341
 H        -1.567533         0.658499         2.352587
 H        -2.423231         4.144494         2.432765
 H        -2.916436         0.754614         0.411230
 H        -2.388801         1.945753        -0.802016
