19
Iteration:  4934
 O        -0.204355         0.245943        -0.159888
 C        -0.682555         1.374783         0.650405
 C         0.244022         2.632861         0.561112
 C        -0.395513         3.596228         1.533356
 C        -0.967940         2.605304         2.692439
 C        -0.654757         1.156537         2.203636
 C        -1.877994         3.437587         1.821133
 O        -2.676131         2.973850         0.814338
 C        -2.111555         1.809228         0.118614
 H         0.376386        -0.259359         0.449158
 H         1.291857         2.599030         0.927137
 H         0.296733         2.942166        -0.543122
 H         0.137857         4.478687         1.930778
 H        -0.871268         2.954311         3.681215
 H         0.361245         0.787740         2.621715
 H        -1.329541         0.474964         2.579339
 H        -2.200370         4.332848         2.306949
 H        -2.735382         0.889835         0.338794
 H        -2.127792         1.989972        -0.942166
