19
Iteration:  4295
 O        -0.124860         0.245689         0.007121
 C        -0.657657         1.396774         0.603191
 C         0.196479         2.727663         0.427607
 C        -0.286601         3.522390         1.586224
 C        -0.948249         2.646277         2.653357
 C        -0.762888         1.197654         2.125923
 C        -1.814476         3.528322         1.778054
 O        -2.689657         2.872501         0.909533
 C        -2.197099         1.668869         0.230693
 H         0.352162         0.473862        -0.836060
 H         1.275982         2.512416         0.538892
 H        -0.056796         3.358486        -0.529936
 H         0.181136         4.399498         1.806524
 H        -0.679988         2.787221         3.697958
 H         0.245683         0.827307         2.467752
 H        -1.431906         0.465817         2.419037
 H        -2.364384         4.326321         2.162098
 H        -2.884857         0.898773         0.461731
 H        -2.196089         1.854532        -0.907210
