19
Iteration:  3263charge 0 multiplicity 1
 O        -0.080916         0.249615        -0.019772
 C        -0.628696         1.481147         0.575336
 C         0.329177         2.674414         0.527513
 C        -0.353847         3.543211         1.576502
 C        -0.932435         2.591280         2.729582
 C        -0.941419         1.171417         2.115589
 C        -1.880802         3.452190         1.827836
 O        -2.715340         2.807449         0.974820
 C        -2.009636         1.886970         0.001784
 H        -0.761246        -0.270985        -0.510299
 H         1.337829         2.401110         0.834905
 H         0.451664         3.060076        -0.448446
 H         0.172914         4.339003         1.991477
 H        -0.659199         2.713339         3.738633
 H        -0.074733         0.597744         2.484930
 H        -1.957550         0.753078         2.155264
 H        -2.275600         4.407558         2.072745
 H        -2.820353         1.201053        -0.005335
 H        -1.892218         2.329842        -1.035949
