19
Iteration:  4811charge 0 multiplicity 1
 O        -0.275798         0.168091         0.013671
 C        -0.674860         1.401487         0.672493
 C         0.179730         2.741554         0.442488
 C        -0.359535         3.533722         1.681966
 C        -1.006811         2.549990         2.702767
 C        -0.643743         1.211252         2.156127
 C        -1.811466         3.515578         1.796341
 O        -2.656156         2.887758         0.811177
 C        -2.034527         1.792279         0.066632
 H         0.124133         0.342228        -0.867893
 H         1.240873         2.424955         0.707566
 H         0.088125         3.240895        -0.593192
 H         0.068258         4.512449         1.892061
 H        -0.963034         2.796119         3.817503
 H         0.417148         0.892227         2.466080
 H        -1.281558         0.491366         2.546871
 H        -2.190207         4.503249         2.225459
 H        -2.747729         0.873479         0.113933
 H        -1.872270         2.126754        -0.926004
