19
Iteration:   613
 O        -0.319409         0.378802        -0.185374
 C        -0.618810         1.392008         0.704776
 C         0.321417         2.583611         0.764549
 C        -0.330830         3.354532         1.852071
 C        -1.179516         2.579597         2.738923
 C        -1.016772         1.042278         2.222354
 C        -1.865574         3.456498         1.808109
 O        -2.449370         3.032664         0.560617
 C        -1.859744         1.920547        -0.132879
 H         0.444842        -0.227100         0.081424
 H         1.273107         2.464076         1.216363
 H         0.523446         3.312860        -0.053992
 H         0.260275         4.417351         2.261468
 H        -1.208087         2.633785         3.851432
 H        -0.336561         0.391917         2.859480
 H        -1.974659         0.448216         2.346708
 H        -2.198306         4.494543         2.166365
 H        -2.707052         1.279435        -0.334939
 H        -1.416675         2.310322        -1.107390
