19
Iteration:  2121
 O        -0.317218         0.282038        -0.095429
 C        -0.660029         1.429163         0.628796
 C         0.492824         2.561099         0.906935
 C        -0.249209         3.394217         1.910585
 C        -1.191902         2.476505         2.675767
 C        -0.892903         1.127385         2.082251
 C        -1.863104         3.486397         1.680252
 O        -2.625804         3.107022         0.561879
 C        -1.964099         1.961227        -0.101283
 H         0.077787        -0.380872         0.524432
 H         1.298415         1.946582         1.427718
 H         0.808696         2.891667        -0.105562
 H         0.233059         4.312092         2.447941
 H        -1.154048         2.794073         3.764724
 H        -0.002908         0.713392         2.601163
 H        -1.700296         0.438467         2.314209
 H        -2.357628         4.339938         2.208976
 H        -2.750888         1.182322        -0.258400
 H        -1.664346         2.369302        -1.005486
