19
Iteration:  4808charge 0 multiplicity 1
 O        -0.281292         0.168988         0.010977
 C        -0.665229         1.407784         0.683844
 C         0.186191         2.772015         0.417914
 C        -0.372963         3.548215         1.678957
 C        -0.994866         2.568552         2.715700
 C        -0.650121         1.190721         2.162369
 C        -1.824438         3.493309         1.800994
 O        -2.629094         2.894912         0.810074
 C        -2.028085         1.770743         0.073115
 H         0.006303         0.276427        -0.919273
 H         1.232339         2.453338         0.642215
 H         0.028858         3.226017        -0.543809
 H         0.067781         4.486658         1.988677
 H        -1.020746         2.740966         3.786549
 H         0.378565         0.888489         2.502360
 H        -1.431900         0.404970         2.569493
 H        -2.121734         4.486761         2.110294
 H        -2.735578         0.929028         0.132707
 H        -1.882804         2.117993        -0.994314
