19
Iteration:   111charge 0 multiplicity 1
 O        -0.229342         0.286117        -0.198707
 C        -0.663483         1.380941         0.672601
 C         0.303045         2.611639         0.780947
 C        -0.257608         3.473264         1.882894
 C        -1.147624         2.500088         2.753597
 C        -1.134237         1.150594         2.131966
 C        -1.789147         3.486446         1.747705
 O        -2.451599         3.004389         0.663809
 C        -1.894958         1.920652        -0.096926
 H         0.620175        -0.189460         0.040114
 H         1.284748         2.189912         1.153773
 H         0.303123         3.143126        -0.183235
 H         0.159531         4.282485         2.344933
 H        -1.321155         2.844488         3.810281
 H        -0.623617         0.414395         2.730882
 H        -2.143161         0.786914         2.090773
 H        -2.509749         4.205547         2.261263
 H        -2.611796         1.200459        -0.331629
 H        -1.484731         2.249243        -1.042318
