19
Iteration:  4765
 O        -0.034839         0.367805        -0.093225
 C        -0.738356         1.372540         0.610906
 C         0.136818         2.663506         0.528839
 C        -0.324265         3.596138         1.629520
 C        -0.918081         2.571949         2.738009
 C        -0.795669         1.146382         2.192860
 C        -1.827785         3.467048         1.802917
 O        -2.527367         2.985792         0.694920
 C        -2.226217         1.677517         0.212108
 H        -0.616727        -0.428866        -0.210039
 H         1.237663         2.372124         0.624079
 H         0.021405         3.189531        -0.452026
 H         0.270429         4.417951         1.986954
 H        -0.880214         2.865740         3.791266
 H         0.155983         0.642846         2.510758
 H        -1.535397         0.378355         2.440971
 H        -2.316296         4.377661         2.078840
 H        -2.943382         0.889398         0.675468
 H        -2.299510         1.761070        -0.861333
