19
Iteration:   537charge 0 multiplicity 1
 O        -0.207698         0.313538        -0.133047
 C        -0.719424         1.399182         0.649198
 C         0.289665         2.574359         0.735120
 C        -0.293009         3.490188         1.840059
 C        -1.195390         2.523940         2.730256
 C        -1.165799         1.111551         2.132571
 C        -1.730801         3.436273         1.784309
 O        -2.427489         2.983863         0.719905
 C        -1.842046         1.928155        -0.187950
 H         0.653465         0.071286         0.179436
 H         1.258533         2.088836         1.186358
 H         0.481533         3.277731        -0.104309
 H         0.202375         4.555607         2.272590
 H        -1.424848         2.603417         3.812769
 H        -0.621869         0.301982         2.740778
 H        -2.212449         0.800242         2.175579
 H        -2.330545         4.249606         2.326425
 H        -2.622613         1.232983        -0.448359
 H        -1.569107         2.550665        -0.944319
