19
Iteration:  2751charge 0 multiplicity 1
 O        -0.247377         0.170135         0.007052
 C        -0.685255         1.431796         0.632588
 C         0.138314         2.809390         0.485827
 C        -0.311352         3.508663         1.810893
 C        -0.955487         2.510509         2.765956
 C        -0.823150         1.166629         2.213054
 C        -1.812028         3.398087         1.823171
 O        -2.436838         2.993735         0.637774
 C        -2.057380         1.783452         0.022299
 H        -0.057128         0.340690        -0.951408
 H         1.147715         2.674194         0.565041
 H        -0.390304         3.405077        -0.327471
 H         0.240786         4.424372         2.000286
 H        -1.091122         2.738253         3.852301
 H         0.042817         0.692224         2.644841
 H        -1.765429         0.628958         2.434066
 H        -2.409242         4.247343         2.084210
 H        -2.764675         0.985445         0.261924
 H        -2.153652         1.988995        -1.123799
