19
Iteration:  4473
 O        -0.302881         0.187583         0.048674
 C        -0.671460         1.450018         0.545066
 C         0.267775         2.676681         0.564844
 C        -0.363354         3.574616         1.693702
 C        -0.847732         2.540022         2.671982
 C        -0.656122         1.177687         2.025789
 C        -1.910368         3.428510         1.797799
 O        -2.677156         3.010632         0.740485
 C        -2.100598         1.752374         0.181636
 H         0.673257         0.337280        -0.098086
 H         1.346633         2.388409         0.851828
 H         0.483206         3.211601        -0.424880
 H         0.211547         4.602823         1.982446
 H        -1.175198         2.829331         3.632114
 H         0.276713         0.834176         2.441238
 H        -1.501156         0.496149         2.298683
 H        -2.513522         4.295684         2.235343
 H        -2.680725         0.933937         0.481692
 H        -2.300203         1.753694        -0.998707
