19
Iteration:  1760
 O        -0.323833         0.254570        -0.125333
 C        -0.675219         1.432682         0.648119
 C         0.407736         2.495629         0.832127
 C        -0.302644         3.404934         1.915877
 C        -1.235720         2.470098         2.719039
 C        -0.905902         1.115812         2.131320
 C        -1.842518         3.448478         1.761119
 O        -2.541471         3.118927         0.569319
 C        -1.906361         2.008680        -0.131850
 H         0.623048         0.059815         0.104079
 H         1.261923         1.979792         1.466306
 H         0.844235         3.208123         0.087200
 H         0.218024         4.287567         2.246657
 H        -1.568289         2.623803         3.744252
 H         0.058112         0.755780         2.617959
 H        -1.697652         0.452666         2.325318
 H        -2.279337         4.486356         2.001043
 H        -2.784312         1.400749        -0.280762
 H        -1.546169         2.310517        -1.137383
