19
Iteration:   388
 O        -0.272121         0.278659        -0.132749
 C        -0.661859         1.395261         0.652586
 C         0.416939         2.619118         0.901357
 C        -0.337155         3.453952         1.810475
 C        -1.177756         2.390382         2.716522
 C        -0.962662         1.062478         2.173522
 C        -1.814032         3.419349         1.714591
 O        -2.507747         3.140551         0.546215
 C        -1.991361         2.004113        -0.022280
 H         0.625396         0.095988         0.076561
 H         1.271325         2.155004         1.393991
 H         0.687318         3.005055        -0.115668
 H         0.182088         4.267088         2.250212
 H        -1.418344         2.578259         3.779764
 H        -0.046026         0.626875         2.568267
 H        -1.936602         0.409654         2.200827
 H        -2.231719         4.429217         2.070616
 H        -2.829648         1.386113        -0.297510
 H        -1.728909         2.263537        -1.114246
