19
Iteration:  1105charge 0 multiplicity 1
 O        -0.098390         0.328561        -0.143532
 C        -0.673426         1.438285         0.634409
 C         0.239623         2.543685         0.705163
 C        -0.389885         3.500945         1.817895
 C        -1.199639         2.389356         2.771187
 C        -1.034196         1.035670         2.162510
 C        -1.811765         3.552551         1.746638
 O        -2.464531         3.058776         0.614177
 C        -1.915567         1.979227         0.007484
 H         0.476137        -0.158337         0.485838
 H         1.170591         2.217472         1.147170
 H         0.311210         2.973932        -0.299175
 H         0.250558         4.203650         2.130068
 H        -1.182656         2.674398         3.830120
 H        -0.186032         0.588714         2.605418
 H        -1.936914         0.335100         2.146549
 H        -2.377992         4.398497         2.260473
 H        -2.661084         1.104102        -0.087403
 H        -1.670571         2.252398        -1.104521
