19
Iteration:   356charge 0 multiplicity 1
 O        -0.287796         0.293783        -0.226635
 C        -0.629360         1.405063         0.645405
 C         0.391999         2.587695         0.798670
 C        -0.288500         3.414981         1.891665
 C        -1.227789         2.537900         2.769236
 C        -1.128569         1.182005         2.129593
 C        -1.843203         3.497242         1.762187
 O        -2.481526         2.940733         0.662251
 C        -1.847998         1.962972        -0.088907
 H         0.528129        -0.183326         0.085795
 H         1.431801         2.356455         1.040082
 H         0.564798         3.102697        -0.229564
 H         0.306456         4.138336         2.337311
 H        -1.220328         2.556094         3.882296
 H        -0.410100         0.629115         2.752801
 H        -2.132597         0.587511         2.287019
 H        -2.194802         4.522836         2.070116
 H        -2.547565         1.168452        -0.297620
 H        -1.375710         2.372307        -1.003179
