19
Iteration:    32charge 0 multiplicity 1
 O        -0.348828         0.354037        -0.233770
 C        -0.638030         1.372058         0.647064
 C         0.343643         2.580178         0.870506
 C        -0.358839         3.413066         1.801640
 C        -1.122631         2.511867         2.720964
 C        -1.006142         1.111772         2.198266
 C        -1.854833         3.475123         1.767592
 O        -2.486806         3.029739         0.601539
 C        -1.845375         1.934041        -0.029193
 H         0.461430        -0.176242        -0.027764
 H         1.289723         2.182136         1.427117
 H         0.742995         3.078882         0.039778
 H         0.194133         4.351847         2.135200
 H        -1.263060         2.635896         3.775373
 H        -0.367334         0.463541         2.864135
 H        -1.979172         0.764917         2.198118
 H        -2.349719         4.398477         1.919512
 H        -2.488460         1.154814        -0.243522
 H        -1.324768         2.288031        -0.908031
