19
Iteration:   817
 O        -0.287446         0.282083        -0.071665
 C        -0.638394         1.462007         0.623164
 C         0.457764         2.591964         0.832759
 C        -0.336521         3.378946         1.820965
 C        -1.164853         2.500906         2.725866
 C        -1.036888         1.171517         2.046796
 C        -1.885341         3.418183         1.820227
 O        -2.600273         3.013733         0.584260
 C        -1.830139         1.996823        -0.064256
 H         0.655042         0.151036         0.236041
 H         1.433665         2.098217         1.066774
 H         0.734510         3.120407        -0.096446
 H         0.164743         4.286305         2.194443
 H        -1.237307         2.476819         3.791603
 H        -0.227700         0.552771         2.491472
 H        -1.932001         0.480296         2.118940
 H        -2.323977         4.269349         2.297768
 H        -2.527401         1.161425        -0.233217
 H        -1.567060         2.485292        -0.944896
