19
Iteration:    52
 O        -0.217573         0.257731        -0.119628
 C        -0.687485         1.457864         0.609843
 C         0.444827         2.499827         0.811371
 C        -0.255578         3.422961         1.857596
 C        -1.303642         2.520592         2.732441
 C        -1.053867         1.110896         2.083834
 C        -1.778003         3.545362         1.765318
 O        -2.597761         3.013357         0.703689
 C        -1.914970         2.012197        -0.140092
 H         0.598324        -0.058416         0.237914
 H         1.500303         2.034830         1.004791
 H         0.626736         2.950584        -0.153075
 H         0.371788         4.248622         2.434266
 H        -1.352198         2.599873         3.806729
 H         0.011212         0.817169         2.401523
 H        -1.784420         0.321014         2.251834
 H        -2.341444         4.412715         2.100754
 H        -2.572124         1.119204        -0.129943
 H        -1.672109         2.440723        -1.151323
