19
Iteration:  2829charge 0 multiplicity 1
 O        -0.310426         0.237745        -0.081218
 C        -0.635404         1.433417         0.629136
 C         0.349641         2.600474         0.656734
 C        -0.353910         3.546892         1.654177
 C        -0.944230         2.640065         2.629136
 C        -0.961876         1.247130         2.194233
 C        -1.828215         3.512819         1.766533
 O        -2.649301         2.668355         0.945204
 C        -1.903822         1.947243        -0.025259
 H        -0.047583         0.500700        -1.001353
 H         1.351318         2.323086         0.888865
 H         0.298247         3.037748        -0.430524
 H         0.250275         4.369573         2.037644
 H        -0.673766         2.997279         3.598575
 H        -0.235415         0.619592         2.667547
 H        -1.915094         0.723229         2.379860
 H        -2.443341         4.208733         2.178522
 H        -2.555386         1.189034        -0.379923
 H        -1.579270         2.440908        -1.009743
