19
Iteration:  2649charge 0 multiplicity 1
 O        -0.152273         0.289344        -0.097875
 C        -0.710438         1.376685         0.651229
 C         0.219263         2.571726         0.582036
 C        -0.350439         3.459945         1.645136
 C        -0.973668         2.583813         2.756891
 C        -0.873612         1.204761         2.224123
 C        -1.838724         3.434511         1.881886
 O        -2.634847         2.941769         0.725189
 C        -1.934126         1.956993        -0.071871
 H        -0.482293        -0.510895         0.310031
 H         1.253648         2.356692         0.657953
 H         0.205237         3.107478        -0.385927
 H         0.150638         4.332490         2.011169
 H        -0.910733         2.676779         3.801244
 H         0.064534         0.742639         2.642097
 H        -1.701063         0.628393         2.656891
 H        -2.315979         4.364589         2.187535
 H        -2.593074         1.108728        -0.158030
 H        -1.769086         2.490728        -0.999779
