19
Iteration:  2424
 O        -0.156913         0.237679        -0.008856
 C        -0.659041         1.397814         0.675360
 C         0.308550         2.643104         0.679949
 C        -0.267709         3.519223         1.729865
 C        -1.090612         2.523692         2.686738
 C        -0.933731         1.102723         2.111114
 C        -1.811644         3.454248         1.752570
 O        -2.619664         2.948884         0.746891
 C        -1.956296         2.032519        -0.053506
 H        -0.930616        -0.320465        -0.254414
 H         1.349174         2.323135         0.988033
 H         0.323771         3.016967        -0.347650
 H         0.220189         4.413325         2.014199
 H        -1.239226         2.667485         3.697632
 H        -0.114215         0.510800         2.576775
 H        -1.870296         0.498063         2.347997
 H        -2.249707         4.315484         2.175445
 H        -2.761198         1.238436        -0.167037
 H        -1.604229         2.330010        -1.024566
