19
Iteration:  3051
 O        -0.275910         0.221839        -0.126737
 C        -0.620529         1.400698         0.662168
 C         0.323652         2.533792         0.641682
 C        -0.341155         3.553494         1.577431
 C        -0.995574         2.616045         2.695292
 C        -0.823741         1.138453         2.272984
 C        -1.862428         3.462660         1.772913
 O        -2.792014         2.787778         0.862204
 C        -1.930525         2.071415        -0.011048
 H         0.363172         0.499635        -0.815880
 H         1.277968         2.165530         1.169470
 H         0.560872         3.077406        -0.325532
 H         0.228344         4.422767         1.716806
 H        -0.724949         2.751105         3.741449
 H         0.190985         0.851515         2.636833
 H        -1.599392         0.506259         2.653503
 H        -2.388415         4.262064         2.215265
 H        -2.561994         1.296705        -0.484899
 H        -1.507068         2.738799        -0.809359
