19
Iteration:  1646charge 0 multiplicity 1
 O        -0.388049         0.316390        -0.249082
 C        -0.686571         1.387803         0.701462
 C         0.338498         2.623480         0.890604
 C        -0.341352         3.524672         1.915883
 C        -1.130082         2.501686         2.756326
 C        -0.970789         1.066636         2.207925
 C        -1.808062         3.470488         1.688646
 O        -2.427928         3.040324         0.512242
 C        -1.854372         1.894754        -0.047323
 H         0.440890        -0.171444        -0.011411
 H         1.373604         2.322797         1.328890
 H         0.314774         3.158756        -0.083961
 H         0.189624         4.363593         2.418831
 H        -1.404483         2.688251         3.868988
 H        -0.144952         0.521432         2.516687
 H        -1.898236         0.403057         2.220929
 H        -2.553333         4.207350         2.249040
 H        -2.657511         1.104145        -0.275307
 H        -1.407921         2.122964        -1.021006
