19
Iteration:  4699charge 0 multiplicity 1
 O        -0.426754         0.225583        -0.078593
 C        -0.664571         1.458062         0.621802
 C         0.194179         2.767941         0.539184
 C        -0.353057         3.653418         1.657663
 C        -0.904015         2.678042         2.799614
 C        -0.780036         1.218716         2.123344
 C        -1.845059         3.310226         1.908031
 O        -2.501575         2.864279         0.668150
 C        -2.006947         1.706861         0.097794
 H         0.512680         0.025352        -0.056649
 H         1.298672         2.377041         0.685458
 H         0.217796         3.317755        -0.443314
 H         0.288394         4.440952         2.062134
 H        -0.927371         2.851248         3.816854
 H         0.070207         0.562404         2.409399
 H        -1.652037         0.654190         2.388448
 H        -2.395433         4.087170         2.307828
 H        -2.648384         0.725374         0.151677
 H        -1.839515         2.057461        -0.928810
