19
Iteration:  4456
 O        -0.274668         0.213003        -0.125315
 C        -0.650622         1.434270         0.673953
 C         0.231023         2.743256         0.510933
 C        -0.315938         3.553737         1.641243
 C        -1.031145         2.604110         2.682658
 C        -0.720353         1.201861         2.165487
 C        -1.811236         3.501871         1.807766
 O        -2.626126         2.918323         0.758135
 C        -2.098233         1.740371         0.145947
 H         0.508028        -0.298092         0.200663
 H         1.289783         2.517620         0.754500
 H         0.121815         3.193943        -0.451092
 H         0.116175         4.390310         2.053205
 H        -0.714675         2.648108         3.733350
 H         0.261907         0.783204         2.522768
 H        -1.487477         0.424534         2.453886
 H        -2.297189         4.266165         2.325319
 H        -2.744487         0.813191         0.423573
 H        -2.125074         1.866111        -0.886545
