19
Iteration:  4713
 O        -0.373493         0.244632        -0.126597
 C        -0.624302         1.422033         0.623790
 C         0.259536         2.757090         0.537795
 C        -0.374033         3.592061         1.684775
 C        -0.943771         2.548479         2.662277
 C        -0.756657         1.192095         2.198824
 C        -1.846459         3.441343         1.800709
 O        -2.515482         2.924368         0.750385
 C        -2.067913         1.735750         0.113438
 H         0.455421        -0.189534         0.192426
 H         1.320862         2.622520         0.879300
 H         0.190534         3.214315        -0.506655
 H        -0.069476         4.587612         1.924467
 H        -0.972601         2.711335         3.793792
 H         0.171926         0.764509         2.718267
 H        -1.558884         0.566452         2.411872
 H        -2.476441         4.164567         2.362279
 H        -2.698696         0.920537         0.519985
 H        -2.132710         1.724679        -0.946749
