19
Iteration:  1354
 O        -0.086377         0.291397        -0.011192
 C        -0.756669         1.397159         0.546930
 C         0.267359         2.609066         0.716436
 C        -0.258264         3.370454         1.889793
 C        -1.167294         2.493910         2.713045
 C        -1.021963         1.090760         2.130084
 C        -1.870255         3.370624         1.842245
 O        -2.416273         3.207533         0.563697
 C        -2.026637         1.954442        -0.103331
 H         0.612954        -0.083610         0.611903
 H         1.325041         2.220258         0.744136
 H         0.040039         3.260720        -0.150415
 H         0.134896         4.237031         2.222251
 H        -1.507781         2.548622         3.775990
 H        -0.053071         0.626655         2.352907
 H        -1.660700         0.248544         2.373395
 H        -2.279433         4.240271         2.374515
 H        -2.897187         1.317199         0.052883
 H        -1.895873         2.029647        -1.230666
