19
Iteration:  2986
 O        -0.171638         0.221699         0.024146
 C        -0.702093         1.417399         0.606690
 C         0.146558         2.729055         0.566393
 C        -0.249340         3.531543         1.740297
 C        -0.989960         2.481545         2.715569
 C        -0.949612         1.163622         2.111959
 C        -1.793262         3.475378         1.814845
 O        -2.544995         2.929538         0.739014
 C        -1.973742         1.860136         0.075728
 H        -0.277304         0.315474        -0.948744
 H         1.255806         2.473948         0.469330
 H        -0.221486         3.229989        -0.309528
 H         0.177789         4.454149         1.955175
 H        -0.983941         2.650767         3.767110
 H        -0.065291         0.654907         2.509123
 H        -1.798781         0.544899         2.237673
 H        -2.286099         4.284993         2.295892
 H        -2.607432         0.986860         0.061695
 H        -1.817993         2.132483        -1.018689
