19
Iteration:  3568charge 0 multiplicity 1
 O        -0.180204         0.329105        -0.021785
 C        -0.649739         1.523224         0.539247
 C         0.202810         2.757749         0.450079
 C        -0.284882         3.515136         1.647708
 C        -0.972260         2.579728         2.640174
 C        -0.733750         1.239614         2.160276
 C        -1.851302         3.433211         1.818803
 O        -2.605003         2.835665         0.798082
 C        -2.154658         1.601542         0.271413
 H        -0.638246         0.093660        -0.828464
 H         1.297994         2.604031         0.703367
 H         0.168037         3.425491        -0.506039
 H         0.391662         4.321392         2.042997
 H        -0.830604         2.864123         3.777118
 H         0.217556         1.069736         2.582665
 H        -1.408507         0.520303         2.465859
 H        -2.401641         4.299176         2.086252
 H        -2.638636         0.713046         0.586997
 H        -2.500206         1.703680        -0.863578
