19
Iteration:   583
 O        -0.210960         0.254525        -0.080022
 C        -0.659518         1.443087         0.627466
 C         0.428974         2.527448         0.842558
 C        -0.299375         3.468263         1.816160
 C        -1.224884         2.528346         2.649324
 C        -1.071117         1.089928         2.040879
 C        -1.802046         3.443550         1.778407
 O        -2.541830         3.019639         0.701386
 C        -1.946656         2.053887        -0.102801
 H         0.647283         0.030281         0.267138
 H         1.374030         2.167229         1.441769
 H         0.593108         2.988213        -0.117367
 H         0.265940         4.392878         2.147838
 H        -1.469597         2.473183         3.721914
 H        -0.176882         0.523992         2.469046
 H        -1.881025         0.421829         2.114435
 H        -2.266663         4.349137         2.210908
 H        -2.720455         1.251684        -0.183196
 H        -1.663764         2.420080        -1.047066
