19
Iteration:  4796charge 0 multiplicity 1
 O        -0.271187         0.187468         0.008814
 C        -0.615663         1.423330         0.613878
 C         0.188183         2.798394         0.468773
 C        -0.324287         3.598042         1.641038
 C        -0.944993         2.627837         2.714375
 C        -0.757843         1.154719         2.213176
 C        -1.859150         3.395171         1.829951
 O        -2.551549         2.905377         0.741725
 C        -2.025342         1.747040         0.150132
 H        -0.617205         0.282605        -0.890914
 H         1.255046         2.809417         0.256306
 H        -0.218974         3.255472        -0.399960
 H         0.209404         4.435717         2.078845
 H        -0.943369         2.785137         3.758708
 H         0.152488         0.719139         2.637259
 H        -1.642318         0.341492         2.298391
 H        -2.494486         4.179985         2.175667
 H        -2.706897         0.926160         0.298216
 H        -1.987994         1.897170        -0.991260
