19
Iteration:  4396
 O        -0.119630         0.220779         0.058110
 C        -0.699689         1.455476         0.590507
 C         0.255044         2.692429         0.498426
 C        -0.317215         3.564633         1.539590
 C        -0.955241         2.612247         2.663215
 C        -0.768152         1.174747         2.058719
 C        -1.809788         3.472349         1.844314
 O        -2.689439         2.897886         0.873864
 C        -2.141511         1.734758         0.170213
 H        -0.042606         0.375863        -0.908477
 H         1.288490         2.345942         0.862682
 H         0.438269         3.203562        -0.524138
 H         0.224760         4.592625         1.638304
 H        -1.008076         2.915877         3.732808
 H         0.134282         0.657080         2.385876
 H        -1.667442         0.580800         2.283044
 H        -2.451214         4.236644         2.427581
 H        -2.585974         0.809891         0.531516
 H        -2.380447         1.955707        -0.914182
