19
Iteration:   289
 O        -0.261860         0.225112        -0.150534
 C        -0.696214         1.353982         0.663499
 C         0.364289         2.611944         0.831202
 C        -0.238258         3.470273         1.858934
 C        -1.163952         2.482212         2.739756
 C        -1.061847         1.148182         2.093661
 C        -1.782689         3.505982         1.767961
 O        -2.576961         2.980692         0.657845
 C        -1.870823         2.026484        -0.106843
 H         0.579316        -0.106102         0.202088
 H         1.455811         2.428508         1.091593
 H         0.535309         3.128812        -0.206150
 H         0.213395         4.414027         2.362294
 H        -1.450624         2.362253         3.750925
 H        -0.320060         0.465388         2.586936
 H        -2.149026         0.668293         2.111069
 H        -2.301687         4.382775         2.045812
 H        -2.542461         1.247689        -0.455968
 H        -1.443453         2.581095        -0.990457
