19
Iteration:  3145charge 0 multiplicity 1
 O        -0.074400         0.381162        -0.103597
 C        -0.720305         1.325362         0.697849
 C         0.138513         2.723801         0.574930
 C        -0.258886         3.522477         1.768998
 C        -1.074445         2.496230         2.665005
 C        -0.780990         1.085091         2.190772
 C        -1.832741         3.505500         1.780278
 O        -2.467564         3.053064         0.599893
 C        -2.143317         1.713691         0.225727
 H        -0.655617        -0.111266        -0.735331
 H         1.232364         2.458872         0.475260
 H        -0.202446         3.231526        -0.337733
 H         0.377240         4.236996         2.151150
 H        -1.132441         2.617102         3.699011
 H         0.181729         0.831540         2.555320
 H        -1.598173         0.341132         2.371348
 H        -2.506631         4.214407         2.207517
 H        -2.960677         0.978559         0.489872
 H        -2.217527         1.851880        -0.863442
