19
Iteration:  4156
 O        -0.244157         0.178850         0.056662
 C        -0.618634         1.460203         0.628257
 C         0.119232         2.783416         0.377840
 C        -0.302233         3.614584         1.613500
 C        -0.901149         2.623247         2.679291
 C        -0.631847         1.217686         2.069808
 C        -1.818581         3.511459         1.806758
 O        -2.721060         2.799123         0.868864
 C        -2.100177         1.694026         0.212616
 H         0.183909         0.223021        -0.813989
 H         1.176604         2.530047         0.393032
 H        -0.200710         3.277273        -0.490113
 H         0.103608         4.567796         1.726879
 H        -0.745469         2.755997         3.753553
 H         0.308113         0.798151         2.511737
 H        -1.477591         0.459045         2.474869
 H        -2.299070         4.374800         2.196963
 H        -2.623293         0.738433         0.465765
 H        -2.180041         1.823528        -0.876429
