19
Iteration:  2929
 O        -0.269970         0.329367        -0.172833
 C        -0.692152         1.409476         0.648464
 C         0.279191         2.722209         0.642759
 C        -0.336573         3.509276         1.815902
 C        -1.176050         2.464987         2.635308
 C        -0.744319         1.098474         2.184734
 C        -1.805678         3.545544         1.691445
 O        -2.381999         3.088304         0.529478
 C        -2.166889         1.634061         0.393652
 H         0.142429         0.641261        -0.985303
 H         1.268300         2.280366         0.731512
 H         0.372991         3.202326        -0.399054
 H         0.212748         4.330776         2.352424
 H        -1.222008         2.520867         3.744919
 H         0.233513         0.782003         2.563960
 H        -1.389153         0.212098         2.221086
 H        -2.539392         4.300573         2.243514
 H        -2.693056         0.988254         1.107262
 H        -2.476282         1.513511        -0.645976
