19
Iteration:  3363
 O         0.000957         0.385683        -0.150366
 C        -0.729719         1.403263         0.696004
 C         0.000179         2.670685         0.498420
 C        -0.297005         3.432870         1.724050
 C        -0.950670         2.529838         2.764909
 C        -0.725220         1.156317         2.153857
 C        -1.793694         3.511601         1.828001
 O        -2.563238         2.999150         0.650439
 C        -2.184504         1.721742         0.158563
 H        -0.013861        -0.373410         0.445101
 H         1.040730         2.432887         0.454123
 H        -0.444809         3.087387        -0.354558
 H         0.250481         4.407865         1.775017
 H        -0.996642         2.795911         3.903597
 H         0.269235         0.624635         2.494892
 H        -1.500224         0.367876         2.565578
 H        -2.226075         4.518748         2.122460
 H        -3.021738         1.006294         0.432785
 H        -2.415926         1.921188        -0.935598
