19
Iteration:    44
 O        -0.279621         0.293970        -0.181596
 C        -0.625909         1.433150         0.648533
 C         0.392489         2.490056         0.809779
 C        -0.347720         3.373582         1.871049
 C        -1.251300         2.544783         2.757639
 C        -1.018123         1.153556         2.095195
 C        -1.806835         3.544362         1.722994
 O        -2.537325         2.994642         0.667707
 C        -1.871450         1.989064        -0.088734
 H         0.524969        -0.032205         0.196491
 H         1.307851         2.069426         1.334123
 H         0.629551         3.013101        -0.086292
 H         0.173101         4.204889         2.304548
 H        -1.145544         2.713761         3.817346
 H        -0.110041         0.701038         2.576615
 H        -1.736768         0.409105         2.146452
 H        -2.171279         4.412658         2.190396
 H        -2.593176         1.244113        -0.186257
 H        -1.703779         2.362570        -1.080852
