19
Iteration:  3613charge 0 multiplicity 1
 O        -0.097246         0.259928        -0.040758
 C        -0.698932         1.338478         0.688203
 C         0.039602         2.667317         0.376140
 C        -0.413843         3.530359         1.563249
 C        -0.856959         2.576359         2.677756
 C        -0.625065         1.140654         2.272425
 C        -1.900374         3.432079         1.915295
 O        -2.617053         3.038274         0.756275
 C        -2.132249         1.746103         0.136170
 H         0.494695         0.758011        -0.618221
 H         1.183203         2.621538         0.344546
 H        -0.314844         3.058870        -0.640183
 H         0.133631         4.366749         1.981613
 H        -0.585872         3.031508         3.637139
 H         0.290557         0.831315         2.567131
 H        -1.309677         0.452472         2.676776
 H        -2.566652         4.018746         2.495597
 H        -2.966891         1.207673         0.404857
 H        -2.109902         1.757659        -1.047231
