19
Iteration:     4charge 0 multiplicity 1
 O        -0.247268         0.317983        -0.128964
 C        -0.685253         1.397112         0.644185
 C         0.348343         2.562710         0.794274
 C        -0.299186         3.453267         1.868729
 C        -1.166376         2.484658         2.714759
 C        -1.060747         1.093884         2.128379
 C        -1.785848         3.473560         1.758676
 O        -2.486496         3.075925         0.613772
 C        -1.914445         1.954732        -0.068090
 H         0.573345        -0.077656         0.277953
 H         1.335927         2.297760         1.080630
 H         0.484138         2.993470        -0.264494
 H         0.124229         4.280794         2.321015
 H        -1.267524         2.727168         3.788036
 H        -0.245102         0.583964         2.615668
 H        -1.996325         0.408188         2.112147
 H        -2.463450         4.233391         2.174420
 H        -2.677431         1.079214        -0.044531
 H        -1.600245         2.195224        -1.119019
