19
Iteration:  1639charge 0 multiplicity 1
 O        -0.342402         0.331619        -0.231379
 C        -0.709793         1.400985         0.732494
 C         0.289565         2.646689         0.871090
 C        -0.303504         3.533275         1.903898
 C        -1.187540         2.470878         2.763763
 C        -0.967745         1.049648         2.219330
 C        -1.757066         3.491218         1.716100
 O        -2.427515         3.039200         0.492791
 C        -1.876741         1.888122        -0.092765
 H         0.480996        -0.088855         0.031568
 H         1.186972         2.068125         1.164764
 H         0.505992         3.175669        -0.083259
 H         0.266224         4.356310         2.389792
 H        -1.420351         2.626859         3.785377
 H        -0.080454         0.420055         2.672483
 H        -1.838926         0.466137         2.214228
 H        -2.430405         4.009753         2.214116
 H        -2.708756         1.210793         0.003505
 H        -1.723857         2.117547        -1.157762
