19
Iteration:  4192
 O        -0.059805         0.342003        -0.106115
 C        -0.755115         1.367950         0.699635
 C         0.050802         2.624958         0.463038
 C        -0.297193         3.641311         1.561867
 C        -0.807919         2.663619         2.644609
 C        -0.689618         1.197097         2.233417
 C        -1.804502         3.505838         1.886657
 O        -2.672331         2.857620         0.765155
 C        -2.160657         1.632648         0.243928
 H        -0.608474         0.170051        -0.885353
 H         1.122133         2.362973         0.482448
 H        -0.121254         2.945104        -0.522836
 H         0.008265         4.754308         1.505647
 H        -0.656109         2.797342         3.723381
 H         0.206665         0.735127         2.569292
 H        -1.626577         0.706786         2.643849
 H        -2.451205         4.215055         2.443227
 H        -2.836916         0.841870         0.384148
 H        -1.978195         1.732786        -0.883505
