19
Iteration:   742charge 0 multiplicity 1
 O        -0.228908         0.330663        -0.075169
 C        -0.690511         1.452161         0.632720
 C         0.379210         2.620308         0.856045
 C        -0.300500         3.458450         1.867589
 C        -1.151085         2.435553         2.628854
 C        -1.006814         0.993985         2.048681
 C        -1.845650         3.507623         1.759730
 O        -2.540900         3.111438         0.578477
 C        -1.959381         1.903325        -0.047784
 H         0.533834         0.042504         0.430160
 H         1.198751         2.010142         1.426258
 H         0.890271         2.967390        -0.143885
 H         0.139327         4.352233         2.420511
 H        -1.123958         2.389581         3.716873
 H        -0.045285         0.629599         2.392976
 H        -1.939632         0.303174         2.272451
 H        -2.206647         4.426069         2.294599
 H        -2.801746         1.222647         0.129271
 H        -1.671528         2.191312        -1.158102
