19
Iteration:  1103
 O        -0.100299         0.339791        -0.148773
 C        -0.680719         1.444441         0.641174
 C         0.239009         2.514049         0.700968
 C        -0.402980         3.508793         1.805128
 C        -1.202837         2.402782         2.771360
 C        -1.030262         1.022516         2.158059
 C        -1.827344         3.553671         1.766391
 O        -2.459494         3.062893         0.613618
 C        -1.898677         1.967172        -0.006015
 H         0.455898        -0.143483         0.440178
 H         1.146560         2.214637         1.181190
 H         0.328690         2.955934        -0.313433
 H         0.346100         4.218446         2.214874
 H        -1.148036         2.724007         3.887869
 H        -0.143603         0.592291         2.602344
 H        -1.939307         0.321655         2.205280
 H        -2.382166         4.443988         2.252395
 H        -2.625884         1.091961        -0.067989
 H        -1.668776         2.240186        -1.098149
