19
Iteration:  1312
 O        -0.329381         0.329152        -0.216776
 C        -0.568116         1.431763         0.706646
 C         0.409707         2.601316         0.853288
 C        -0.306679         3.505461         1.877285
 C        -1.223486         2.489975         2.650813
 C        -1.043855         1.082851         2.082537
 C        -1.805252         3.476568         1.706686
 O        -2.471219         3.026559         0.604794
 C        -1.927643         1.863580         0.039459
 H         0.557752         0.030818         0.053750
 H         1.412894         2.341316         1.224812
 H         0.410607         3.206393        -0.077775
 H         0.217847         4.344712         2.238703
 H        -1.373489         2.642340         3.752984
 H        -0.296073         0.669507         2.765737
 H        -1.950617         0.438072         2.272808
 H        -2.492507         4.166219         2.195425
 H        -2.498405         0.964895         0.105582
 H        -1.829536         2.147088        -0.957053
