19
Iteration:  2942
 O        -0.228675         0.269595        -0.119255
 C        -0.654280         1.399762         0.643301
 C         0.203019         2.633066         0.680245
 C        -0.329568         3.510887         1.796053
 C        -1.139237         2.483965         2.698861
 C        -0.623127         1.086360         2.089482
 C        -1.818841         3.446772         1.766514
 O        -2.466105         3.139045         0.494505
 C        -2.210151         1.768796         0.287704
 H         0.104591         0.635570        -0.971861
 H         1.232196         2.430162         1.137226
 H         0.210855         3.244148        -0.188350
 H         0.296948         4.303131         2.102511
 H        -1.495652         2.702177         3.699170
 H         0.372233         0.893433         2.496712
 H        -1.274607         0.333964         2.448592
 H        -2.260861         4.395808         2.221363
 H        -2.890673         1.306206         0.968609
 H        -2.542922         1.319242        -0.677882
