19
Iteration:  1099
 O        -0.117926         0.374138        -0.165673
 C        -0.700820         1.420290         0.667332
 C         0.247876         2.485394         0.707490
 C        -0.403173         3.505299         1.776693
 C        -1.209019         2.470237         2.770278
 C        -1.023631         1.002670         2.140267
 C        -1.875084         3.547919         1.829819
 O        -2.457373         3.083833         0.615941
 C        -1.870930         1.920468        -0.059238
 H         0.487909        -0.175374         0.418227
 H         1.207246         2.194258         1.227847
 H         0.431309         2.916530        -0.288706
 H         0.423002         4.210496         2.370380
 H        -1.102441         2.722659         3.816155
 H        -0.047791         0.544238         2.600466
 H        -1.842609         0.363615         2.343743
 H        -2.350451         4.411597         2.153192
 H        -2.561195         1.126308        -0.020569
 H        -1.660326         2.196364        -1.032075
