19
Iteration:   906
 O        -0.140911         0.259119        -0.085622
 C        -0.659207         1.421585         0.618048
 C         0.274309         2.567307         0.798583
 C        -0.259377         3.462751         1.926566
 C        -1.166457         2.469531         2.654628
 C        -1.015674         1.101195         2.039612
 C        -1.847686         3.575780         1.825085
 O        -2.550267         3.068793         0.617953
 C        -1.952987         1.925994        -0.111792
 H         0.675199        -0.127405         0.294097
 H         1.350541         2.346221         0.951174
 H         0.354933         3.127396        -0.196255
 H         0.341860         4.253839         2.511595
 H        -1.293511         2.401628         3.739696
 H        -0.372273         0.478958         2.661573
 H        -2.059417         0.568617         2.168210
 H        -2.399242         4.294052         2.275199
 H        -2.670162         1.098596        -0.016100
 H        -1.578903         2.085284        -1.127073
