19
Iteration:  3421charge 0 multiplicity 1
 O        -0.305540         0.230681        -0.090358
 C        -0.611023         1.496231         0.610440
 C         0.297239         2.693829         0.563781
 C        -0.346107         3.534506         1.651768
 C        -1.025323         2.600874         2.714415
 C        -0.639108         1.251522         2.163302
 C        -1.884357         3.433259         1.790673
 O        -2.705725         2.896904         0.821403
 C        -2.040698         1.669126         0.131014
 H         0.113119         0.652710        -0.878002
 H         1.333653         2.244816         0.751705
 H         0.424037         3.022577        -0.480383
 H         0.066190         4.509870         1.890005
 H        -0.937741         2.788000         3.729305
 H         0.405249         1.012941         2.382539
 H        -1.379139         0.490263         2.481664
 H        -2.249116         4.306620         2.245486
 H        -2.698354         0.865405         0.438879
 H        -2.148723         1.964432        -0.959828
