19
Iteration:  2654
 O        -0.176359         0.338636        -0.135132
 C        -0.688384         1.403084         0.678988
 C         0.249617         2.577854         0.598452
 C        -0.339866         3.470811         1.608992
 C        -1.010255         2.568757         2.766265
 C        -0.879029         1.197748         2.279154
 C        -1.827448         3.439696         1.860952
 O        -2.601142         2.943188         0.712891
 C        -1.970589         1.901504        -0.050465
 H        -0.547734        -0.494972         0.240389
 H         1.337680         2.262804         0.784625
 H         0.122339         3.023344        -0.451693
 H         0.125437         4.409863         1.971834
 H        -0.849302         2.529822         3.913615
 H         0.064974         0.795889         2.615014
 H        -1.699581         0.502758         2.576309
 H        -2.348600         4.389521         2.176033
 H        -2.698891         1.041138        -0.112154
 H        -1.707009         2.377829        -1.072957
