19
Iteration:  2657
 O        -0.193339         0.366271        -0.153188
 C        -0.677533         1.419426         0.691924
 C         0.277800         2.586931         0.594857
 C        -0.332203         3.492411         1.617082
 C        -1.033387         2.564034         2.778922
 C        -0.883736         1.178059         2.292940
 C        -1.827025         3.451819         1.827888
 O        -2.580894         2.945311         0.715969
 C        -1.997212         1.867114        -0.030359
 H        -0.571824        -0.457579         0.151496
 H         1.322942         2.239414         0.875598
 H         0.129209         2.905185        -0.375536
 H         0.131882         4.424157         1.893296
 H        -0.851010         2.566835         3.841780
 H         0.112866         0.780851         2.619638
 H        -1.685086         0.434898         2.475385
 H        -2.294491         4.284717         2.170494
 H        -2.771358         1.021513        -0.132941
 H        -1.688179         2.161585        -1.008861
