19
Iteration:  2954
 O        -0.150733         0.231330        -0.076257
 C        -0.739498         1.378436         0.640070
 C         0.213184         2.623242         0.665314
 C        -0.367755         3.460695         1.799232
 C        -1.034829         2.477510         2.695691
 C        -0.653516         1.115086         2.184795
 C        -1.863920         3.441078         1.775224
 O        -2.529278         3.203284         0.489940
 C        -2.188377         1.844120         0.226712
 H        -0.006474         0.422361        -1.027404
 H         1.286080         2.219438         0.702831
 H         0.185420         3.129303        -0.246708
 H         0.035652         4.376079         2.081996
 H        -1.026651         2.513921         3.766136
 H         0.420620         0.988638         2.345675
 H        -1.168104         0.259458         2.550395
 H        -2.417249         4.153607         2.335782
 H        -2.817415         1.135072         0.703220
 H        -2.229156         1.827844        -0.882330
