19
Iteration:  3249
 O        -0.045100         0.283618        -0.068162
 C        -0.651252         1.407584         0.586651
 C         0.305195         2.646240         0.548150
 C        -0.282783         3.573456         1.669319
 C        -0.902948         2.643494         2.630008
 C        -1.029647         1.244571         2.032919
 C        -1.789569         3.478254         1.864086
 O        -2.691912         2.746035         0.944698
 C        -2.049390         1.864777         0.048892
 H        -0.730772        -0.395389        -0.036219
 H         1.292089         2.420689         0.822368
 H         0.143365         3.156595        -0.399104
 H         0.133032         4.639727         1.887482
 H        -0.919666         2.741499         3.727642
 H        -0.548872         0.391241         2.617123
 H        -2.048816         0.907609         2.138330
 H        -2.394703         4.198859         2.476808
 H        -2.512962         0.857777        -0.117945
 H        -2.037336         2.360192        -0.900717
