19
Iteration:  3793
 O        -0.194484         0.387441        -0.183196
 C        -0.686525         1.360943         0.756387
 C         0.101955         2.670129         0.407882
 C        -0.331424         3.567378         1.521641
 C        -0.928369         2.637917         2.656749
 C        -0.509560         1.251948         2.233843
 C        -1.877576         3.465197         1.776980
 O        -2.726253         2.805050         0.872550
 C        -2.144583         1.709736         0.225106
 H         0.360786        -0.206097         0.380735
 H         1.189024         2.285546         0.360977
 H         0.118249         3.124124        -0.550225
 H         0.293218         4.364173         1.892704
 H        -0.947118         2.863553         3.749384
 H         0.550758         1.138483         2.428483
 H        -1.093240         0.500931         2.817564
 H        -2.372301         4.201293         2.254687
 H        -2.878689         0.847654         0.381380
 H        -2.218671         1.899516        -0.894817
