19
Iteration:   174
 O        -0.234322         0.265514        -0.147474
 C        -0.660910         1.345719         0.694347
 C         0.259564         2.702707         0.792963
 C        -0.350649         3.460116         1.939471
 C        -1.136454         2.448173         2.742723
 C        -1.018872         1.039107         2.117806
 C        -1.829990         3.521790         1.769883
 O        -2.422762         3.208232         0.486858
 C        -1.942962         1.814741        -0.031532
 H         0.490386        -0.230411         0.289463
 H         1.250989         2.247023         1.041684
 H         0.346624         3.166530        -0.137373
 H         0.207180         4.252730         2.294682
 H        -1.016068         2.556960         3.858249
 H        -0.099326         0.429614         2.563922
 H        -1.848461         0.400628         2.054264
 H        -2.343210         4.357745         2.313078
 H        -2.877374         1.155935        -0.113986
 H        -1.669008         2.160922        -1.115282
