19
Iteration:  2967
 O        -0.162828         0.260482         0.008790
 C        -0.691746         1.382604         0.676782
 C         0.181765         2.669600         0.506686
 C        -0.353537         3.496021         1.751235
 C        -1.019421         2.453738         2.728226
 C        -0.705717         1.070580         2.183437
 C        -1.897152         3.488701         1.827755
 O        -2.509909         3.169717         0.634753
 C        -2.112934         1.768166         0.044869
 H        -0.268515         0.484966        -0.928381
 H         1.229054         2.365922         0.806185
 H         0.137310         3.127958        -0.442647
 H         0.323939         4.206879         2.223584
 H        -1.010416         2.787478         3.764408
 H         0.263252         0.695582         2.537737
 H        -1.474234         0.317098         2.431269
 H        -2.413222         4.228235         2.313285
 H        -2.989353         1.152610         0.217405
 H        -2.079147         1.857275        -1.047830
