19
Iteration:  4646charge 0 multiplicity 1
 O        -0.089050         0.306924        -0.077496
 C        -0.636752         1.385599         0.592560
 C         0.324267         2.467098         0.543379
 C        -0.348172         3.524611         1.580727
 C        -0.991964         2.608417         2.682084
 C        -0.891808         1.193962         2.113625
 C        -1.848723         3.608648         1.793658
 O        -2.767704         2.909299         0.915639
 C        -2.094144         1.825636         0.119869
 H         0.826377         0.534390        -0.254098
 H         1.280494         2.048608         0.938357
 H         0.389794         2.883012        -0.515184
 H         0.192651         4.479420         1.713036
 H        -0.761465         2.559004         3.717044
 H         0.040456         0.708250         2.611421
 H        -1.670296         0.570808         2.367089
 H        -2.193457         4.469424         2.272115
 H        -2.609422         0.856563         0.295313
 H        -2.183484         2.120179        -0.866596
