19
Iteration:  3112
 O        -0.047055         0.350779        -0.115242
 C        -0.699714         1.372841         0.597511
 C         0.208121         2.644753         0.553130
 C        -0.253092         3.483647         1.699773
 C        -1.033164         2.534552         2.731927
 C        -0.850197         1.166430         2.135373
 C        -1.866134         3.445955         1.840452
 O        -2.565201         3.065459         0.672908
 C        -2.203706         1.775433         0.164756
 H         0.468891        -0.292389         0.426078
 H         1.313419         2.394034         0.549238
 H         0.151649         3.240510        -0.365565
 H         0.377996         4.276312         2.010467
 H        -0.952170         2.494929         3.772746
 H        -0.128238         0.598249         2.686421
 H        -1.731706         0.441470         2.248391
 H        -2.455433         4.214193         2.371973
 H        -2.923368         0.942446         0.415494
 H        -2.181011         2.013334        -0.923924
