19
Iteration:  1157charge 0 multiplicity 1
 O        -0.233500         0.315340        -0.093448
 C        -0.667142         1.425328         0.616725
 C         0.309687         2.627516         0.776101
 C        -0.379483         3.473112         1.857367
 C        -1.182586         2.439471         2.713108
 C        -0.995228         1.142863         2.067802
 C        -1.811428         3.425561         1.778736
 O        -2.449143         3.025362         0.671832
 C        -1.928742         1.894341        -0.090956
 H         0.516389        -0.118703         0.330881
 H         1.306134         2.331735         1.146887
 H         0.457671         3.248712        -0.149991
 H         0.105752         4.420327         2.164689
 H        -1.347945         2.705964         3.785369
 H        -0.153800         0.587156         2.543909
 H        -1.942216         0.510379         2.138123
 H        -2.123456         4.430506         2.209049
 H        -2.655804         1.100959        -0.193677
 H        -1.617373         2.250455        -1.064654
