19
Iteration:  2871charge 0 multiplicity 1
 O        -0.139105         0.220443         0.132582
 C        -0.726565         1.410700         0.615288
 C         0.248748         2.666755         0.574587
 C        -0.305494         3.479010         1.685033
 C        -0.979103         2.532270         2.633112
 C        -0.805179         1.160586         2.063694
 C        -1.889644         3.441604         1.860526
 O        -2.605909         3.018652         0.770150
 C        -2.073869         1.893406        -0.017176
 H        -0.135857         0.107101        -0.836270
 H         1.196048         2.367153         0.862884
 H         0.106933         3.227782        -0.435500
 H         0.358370         4.184683         2.184325
 H        -0.840878         2.568138         3.695943
 H         0.175324         0.759397         2.362652
 H        -1.560185         0.329900         2.262950
 H        -2.287561         4.243867         2.317747
 H        -2.786957         1.067038        -0.064283
 H        -2.165246         2.364754        -0.968047
