19
Iteration:   893charge 0 multiplicity 1
 O        -0.185216         0.243251        -0.116586
 C        -0.634776         1.425680         0.624724
 C         0.403267         2.730072         0.771453
 C        -0.302425         3.482537         1.893587
 C        -1.179575         2.475531         2.725241
 C        -1.173130         1.136886         2.030354
 C        -1.780052         3.423217         1.787145
 O        -2.489742         3.050691         0.641618
 C        -1.934616         1.846196        -0.030699
 H         0.657031         0.052185         0.339171
 H         1.334401         2.232077         1.098487
 H         0.476525         3.257753        -0.198448
 H         0.215557         4.359805         2.393476
 H        -1.369362         2.622418         3.749415
 H        -0.448024         0.422959         2.448982
 H        -2.149335         0.636903         1.876296
 H        -2.256106         4.249874         2.201270
 H        -2.717167         1.010055        -0.056324
 H        -1.959037         2.270315        -1.082971
