19
Iteration:  3648charge 0 multiplicity 1
 O        -0.328229         0.277386        -0.148080
 C        -0.645607         1.414351         0.591174
 C         0.296063         2.790836         0.502757
 C        -0.313411         3.647757         1.714479
 C        -0.951692         2.639689         2.651973
 C        -0.655335         1.214735         2.166241
 C        -1.813134         3.440955         1.692775
 O        -2.701791         2.797785         0.888264
 C        -2.159626         1.634448         0.204277
 H         0.603669         0.019610        -0.078280
 H         1.412612         2.585278         0.719565
 H         0.205739         3.404761        -0.435390
 H         0.296573         4.482320         2.046901
 H        -0.912387         2.866636         3.671697
 H         0.335756         0.971271         2.435795
 H        -1.482031         0.480750         2.361019
 H        -2.398809         4.316004         2.199615
 H        -2.637458         0.741115         0.676742
 H        -2.275827         1.589455        -0.929285
