19
Iteration:   381charge 0 multiplicity 1
 O        -0.330104         0.307076        -0.149881
 C        -0.660283         1.441391         0.677691
 C         0.393103         2.545758         0.887422
 C        -0.321797         3.488860         1.838768
 C        -1.210663         2.472578         2.708709
 C        -0.940367         1.027650         2.123704
 C        -1.845706         3.439140         1.706559
 O        -2.509936         3.097010         0.567351
 C        -1.909347         1.983670        -0.041719
 H         0.592330         0.106663         0.057211
 H         1.375096         2.258054         1.321107
 H         0.741092         3.064055        -0.080038
 H         0.350898         4.210805         2.285066
 H        -1.335977         2.632176         3.821366
 H        -0.163500         0.438494         2.624839
 H        -1.928673         0.486313         2.217669
 H        -2.319349         4.289831         2.237705
 H        -2.633185         1.129698        -0.175844
 H        -1.539885         2.192635        -1.015973
