19
Iteration:  4379
 O        -0.275927         0.165537         0.014112
 C        -0.609333         1.438952         0.599236
 C         0.234661         2.702758         0.447640
 C        -0.354747         3.592040         1.619749
 C        -0.948728         2.597006         2.681793
 C        -0.690009         1.235660         2.109287
 C        -1.852778         3.503551         1.816573
 O        -2.731580         2.866663         0.868787
 C        -2.070886         1.768174         0.125384
 H         0.620809         0.127644        -0.359997
 H         1.301470         2.519524         0.570120
 H         0.154400         3.146184        -0.500383
 H         0.116872         4.412441         2.127288
 H        -0.657186         2.633631         3.711091
 H         0.323394         0.963222         2.449362
 H        -1.442389         0.421462         2.338690
 H        -2.254118         4.409205         2.217433
 H        -2.757661         0.869068         0.267991
 H        -2.030311         1.977123        -0.940820
