19
Iteration:  4120charge 0 multiplicity 1
 O        -0.184474         0.253055        -0.048763
 C        -0.631040         1.408493         0.632999
 C         0.174729         2.623005         0.495099
 C        -0.424326         3.615324         1.501844
 C        -0.825992         2.662390         2.708276
 C        -0.557089         1.214909         2.185069
 C        -1.857553         3.458626         1.806542
 O        -2.782469         2.861266         0.857415
 C        -2.209488         1.724724         0.201163
 H         0.311157         0.566009        -0.837633
 H         1.164278         2.275266         0.818920
 H         0.421251         2.973420        -0.572337
 H        -0.037886         4.651341         1.507611
 H        -0.499330         2.751770         3.744865
 H         0.541766         0.953629         2.519120
 H        -1.285670         0.441294         2.503146
 H        -2.330252         4.480197         2.115892
 H        -2.784281         0.776674         0.537982
 H        -2.305655         1.863437        -0.843179
