19
Iteration:  2277charge 0 multiplicity 1
 O        -0.076300         0.278731        -0.088539
 C        -0.721288         1.382027         0.613574
 C         0.341416         2.601739         0.706481
 C        -0.244587         3.466317         1.865550
 C        -1.195616         2.456890         2.648787
 C        -1.028200         1.062325         2.063488
 C        -1.785583         3.571823         1.742666
 O        -2.476302         3.175122         0.607815
 C        -2.148713         1.835216         0.105728
 H         0.407249        -0.267529         0.560474
 H         1.391397         2.327755         0.875652
 H         0.327120         3.248697        -0.236645
 H         0.241959         4.255211         2.308248
 H        -1.213257         2.629737         3.690218
 H        -0.125646         0.538522         2.450217
 H        -1.765562         0.300913         2.126693
 H        -2.317619         4.379327         2.187094
 H        -2.836308         1.055103         0.541823
 H        -2.107099         1.821611        -0.981349
