19
Iteration:   903charge 0 multiplicity 1
 O        -0.146960         0.243573        -0.095115
 C        -0.664376         1.428940         0.641418
 C         0.305758         2.616254         0.801973
 C        -0.251519         3.476404         1.915568
 C        -1.165315         2.484685         2.668409
 C        -1.047921         1.112609         2.016878
 C        -1.828870         3.544625         1.822352
 O        -2.544175         3.067028         0.623092
 C        -1.950604         1.897997        -0.093820
 H         0.697531        -0.128898         0.279865
 H         1.345349         2.261461         0.988663
 H         0.298312         3.075952        -0.185634
 H         0.257399         4.246920         2.535301
 H        -1.346646         2.343744         3.690124
 H        -0.409292         0.454870         2.627453
 H        -2.021367         0.648795         2.021746
 H        -2.406835         4.306707         2.333122
 H        -2.701851         1.030385        -0.020546
 H        -1.652973         2.116722        -1.201603
