19
Iteration:   526charge 0 multiplicity 1
 O        -0.266011         0.316290        -0.144028
 C        -0.685122         1.431082         0.635032
 C         0.295691         2.626766         0.774215
 C        -0.313199         3.479346         1.852359
 C        -1.184972         2.459188         2.780266
 C        -1.141982         1.114507         2.139952
 C        -1.772348         3.516941         1.777528
 O        -2.443465         2.966362         0.645896
 C        -1.847418         1.953631        -0.125413
 H         0.620601         0.022021         0.196245
 H         1.238256         2.169317         1.300932
 H         0.642082         2.834437        -0.261047
 H         0.451534         4.283761         2.372345
 H        -1.238345         2.596611         3.876468
 H        -0.339019         0.391130         2.468531
 H        -2.088958         0.615889         2.012282
 H        -2.412888         4.356564         2.192671
 H        -2.538748         1.144546        -0.335620
 H        -1.429635         2.148330        -1.068684
