19
Iteration:  1661
 O        -0.382032         0.268703        -0.190273
 C        -0.579096         1.365836         0.702024
 C         0.407588         2.600134         0.825340
 C        -0.372318         3.417851         1.846901
 C        -1.205711         2.501751         2.719880
 C        -0.980279         1.113375         2.137724
 C        -1.919661         3.464870         1.840319
 O        -2.499848         3.060354         0.561559
 C        -1.773014         1.990822        -0.091345
 H         0.394623        -0.272513         0.103183
 H         1.473309         2.288239         1.179327
 H         0.627290         3.096400        -0.146929
 H         0.080869         4.343892         2.233334
 H        -1.203011         2.561491         3.773504
 H        -0.150402         0.688378         2.833702
 H        -1.862763         0.573561         2.310139
 H        -2.284211         4.366859         2.078148
 H        -2.538192         1.225045        -0.202439
 H        -1.599270         2.465881        -1.085594
