19
Iteration:  2691charge 0 multiplicity 1
 O        -0.097306         0.323827        -0.218964
 C        -0.644124         1.435989         0.630199
 C         0.366236         2.587952         0.717180
 C        -0.269030         3.496642         1.811346
 C        -1.102604         2.529822         2.656123
 C        -0.849663         1.197786         2.128529
 C        -1.829697         3.560803         1.709470
 O        -2.621234         3.050757         0.624417
 C        -2.184657         1.671576         0.259294
 H        -0.876187        -0.159448        -0.535013
 H         1.435024         2.276754         0.948890
 H         0.541312         2.987385        -0.245806
 H         0.361061         4.316782         2.101736
 H        -0.998547         2.672332         3.703000
 H         0.120942         0.916918         2.663682
 H        -1.546954         0.387292         2.370851
 H        -2.305556         4.423542         2.146623
 H        -2.882865         1.027733         0.947063
 H        -2.417799         1.456279        -0.748333
