19
Iteration:  1147charge 0 multiplicity 1
 O        -0.254551         0.291942        -0.042844
 C        -0.663385         1.497635         0.582162
 C         0.308461         2.689758         0.741784
 C        -0.287074         3.377523         1.905794
 C        -1.182618         2.525314         2.760108
 C        -0.998350         1.146447         2.000687
 C        -1.802300         3.471868         1.802693
 O        -2.466286         2.963345         0.606618
 C        -1.925765         1.900387        -0.073809
 H         0.488833        -0.045756         0.435506
 H         1.204135         2.208754         1.121312
 H         0.523474         3.416637        -0.071064
 H         0.200413         4.250171         2.278572
 H        -1.237636         2.403669         3.876806
 H        -0.207975         0.551412         2.468296
 H        -1.976963         0.534545         1.996809
 H        -2.622643         4.159922         2.211208
 H        -2.662316         1.060065        -0.010545
 H        -1.795679         2.130227        -1.170810
