19
Iteration:  1075
 O        -0.211432         0.316164        -0.233279
 C        -0.651665         1.428759         0.667955
 C         0.358756         2.575156         0.850399
 C        -0.318988         3.474722         1.921017
 C        -1.155532         2.482085         2.713531
 C        -0.972040         1.120020         2.181482
 C        -1.802908         3.432895         1.697225
 O        -2.550027         3.045787         0.555417
 C        -1.991198         1.925828        -0.026436
 H         0.532282        -0.116335         0.186648
 H         1.349230         2.217393         1.253974
 H         0.579093         3.186181        -0.030460
 H         0.181355         4.395061         2.215450
 H        -1.395018         2.621363         3.712862
 H        -0.169196         0.575421         2.776684
 H        -1.903137         0.557803         2.352610
 H        -2.410857         4.193197         2.203267
 H        -2.731354         1.115450        -0.087054
 H        -1.681937         2.250374        -1.017377
