19
Iteration:  1989charge 0 multiplicity 1
 O        -0.441896         0.292729        -0.066145
 C        -0.599478         1.473598         0.651911
 C         0.372971         2.628183         0.833504
 C        -0.344151         3.394940         1.886898
 C        -1.208972         2.486900         2.711185
 C        -1.021705         1.153696         2.133557
 C        -1.803609         3.469592         1.804849
 O        -2.445923         2.983536         0.575879
 C        -1.779384         1.966757        -0.173566
 H         0.402834        -0.229677        -0.089809
 H         1.299233         2.132468         1.014203
 H         0.458676         3.211052        -0.118717
 H         0.124763         4.144865         2.461861
 H        -1.228976         2.737985         3.737532
 H        -0.094922         0.737224         2.579086
 H        -1.863945         0.483909         2.094241
 H        -2.528430         4.137950         2.220044
 H        -2.483075         1.079795        -0.302020
 H        -1.508398         2.321294        -1.138742
