19
Iteration:   426charge 0 multiplicity 1
 O        -0.159849         0.327184        -0.093367
 C        -0.688332         1.387093         0.679390
 C         0.210624         2.664446         0.687818
 C        -0.289555         3.352122         1.922398
 C        -1.223000         2.459276         2.676878
 C        -1.120870         1.092573         2.050617
 C        -1.761865         3.518535         1.786675
 O        -2.345750         3.112208         0.576268
 C        -1.977437         1.896406         0.012947
 H         0.658964        -0.041493         0.308261
 H         1.290784         2.353307         0.846766
 H         0.273449         3.302702        -0.220988
 H         0.274378         4.137349         2.557335
 H        -1.404279         2.438360         3.724738
 H        -0.394916         0.525643         2.673147
 H        -1.986118         0.417220         2.066216
 H        -2.246194         4.347414         2.186386
 H        -2.713583         1.061099         0.119510
 H        -1.687658         2.047425        -1.001039
