19
Iteration:  3247charge 0 multiplicity 1
 O        -0.045185         0.290577        -0.081984
 C        -0.667160         1.432446         0.600967
 C         0.276584         2.640585         0.547562
 C        -0.260076         3.561461         1.672870
 C        -0.895856         2.648535         2.631348
 C        -1.035549         1.240617         2.040341
 C        -1.783173         3.488286         1.845149
 O        -2.686602         2.735250         0.941974
 C        -2.043995         1.861055         0.048653
 H        -0.660773        -0.458527         0.036226
 H         1.344271         2.491027         0.919945
 H         0.124268         3.190101        -0.445085
 H         0.181194         4.637206         1.842435
 H        -0.957923         2.646764         3.801498
 H        -0.546327         0.441857         2.642947
 H        -2.094269         0.936936         2.111889
 H        -2.422999         4.131693         2.537924
 H        -2.580363         0.844253        -0.121220
 H        -1.989394         2.304143        -0.929965
