19
Iteration:   382
 O        -0.324964         0.302929        -0.148148
 C        -0.660683         1.436917         0.672930
 C         0.395376         2.557973         0.890612
 C        -0.326168         3.484354         1.830950
 C        -1.207817         2.460258         2.713668
 C        -0.945040         1.027718         2.130116
 C        -1.846091         3.435585         1.703008
 O        -2.508291         3.101812         0.564957
 C        -1.920753         1.991359        -0.033647
 H         0.618464         0.106072         0.067615
 H         1.383763         2.250297         1.333001
 H         0.736778         3.041840        -0.060673
 H         0.380310         4.243448         2.300091
 H        -1.342792         2.622577         3.802415
 H        -0.129526         0.453735         2.625370
 H        -1.898261         0.516129         2.211121
 H        -2.282508         4.282814         2.199391
 H        -2.675644         1.152375        -0.218293
 H        -1.567407         2.187225        -1.033937
