19
Iteration:  2315charge 0 multiplicity 1
 O        -0.178657         0.294270        -0.032795
 C        -0.769293         1.369437         0.692374
 C         0.244223         2.647819         0.706849
 C        -0.331867         3.504627         1.818352
 C        -1.106352         2.512298         2.722220
 C        -0.903713         1.005069         2.126890
 C        -1.841753         3.509099         1.817026
 O        -2.421085         3.087964         0.562262
 C        -1.921704         1.862070        -0.024870
 H        -0.914024        -0.218190        -0.456241
 H         1.262647         2.251386         0.556445
 H        -0.033920         3.121329        -0.203855
 H         0.238688         4.345445         2.364984
 H        -0.978581         2.645242         3.816925
 H         0.132819         0.772594         2.366866
 H        -1.835515         0.430064         2.414707
 H        -2.444059         4.309507         2.283764
 H        -2.811459         1.248531        -0.045632
 H        -1.678655         2.114162        -1.078643
