19
Iteration:  2480charge 0 multiplicity 1
 O        -0.208578         0.361047        -0.164701
 C        -0.683996         1.342008         0.759539
 C         0.202294         2.661265         0.624431
 C        -0.283462         3.497962         1.765838
 C        -1.130085         2.527412         2.723364
 C        -0.882599         1.042329         2.296065
 C        -1.714448         3.455278         1.707923
 O        -2.509090         3.112221         0.606987
 C        -2.089664         1.749940         0.058567
 H         0.745766         0.342563        -0.286889
 H         1.281522         2.286892         0.706017
 H         0.065500         3.027116        -0.367659
 H         0.257302         4.311911         2.173570
 H        -1.339376         2.791360         3.771511
 H         0.051330         0.619132         2.734177
 H        -1.819208         0.438320         2.520023
 H        -2.178552         4.419262         2.087190
 H        -3.032429         1.104144         0.108237
 H        -1.799960         1.833765        -0.959192
