19
Iteration:   514
 O        -0.272335         0.311470        -0.129539
 C        -0.641067         1.420227         0.668619
 C         0.394186         2.532325         0.843071
 C        -0.314887         3.398041         1.877371
 C        -1.139322         2.518019         2.714439
 C        -1.076737         1.088484         2.051981
 C        -1.860262         3.501095         1.797490
 O        -2.531039         3.045449         0.575188
 C        -1.865283         1.954304        -0.094212
 H         0.575972        -0.062751         0.195686
 H         1.444600         2.224360         1.151530
 H         0.409166         3.240527        -0.043207
 H         0.245122         4.331181         2.423012
 H        -1.148976         2.647006         3.786535
 H        -0.295588         0.580713         2.674467
 H        -1.975171         0.460973         2.221724
 H        -2.316981         4.445405         2.068719
 H        -2.591708         1.170688        -0.095862
 H        -1.690552         2.359050        -1.031832
