19
Iteration:  3540charge 0 multiplicity 1
 O        -0.166926         0.291275        -0.190827
 C        -0.648847         1.411865         0.722222
 C         0.188610         2.574541         0.604803
 C        -0.424489         3.664779         1.527813
 C        -0.890440         2.616003         2.685892
 C        -0.612061         1.153940         2.223129
 C        -1.859806         3.481877         1.799161
 O        -2.739546         2.890295         0.837035
 C        -2.028162         1.711885         0.170611
 H        -0.889960         0.108590        -0.798587
 H         1.228104         2.700577         0.787325
 H         0.129359         2.859658        -0.406722
 H         0.016760         4.635574         1.590371
 H        -0.780855         2.917516         3.642898
 H         0.516225         0.979510         2.526798
 H        -1.445177         0.492597         2.726773
 H        -2.496854         4.192435         2.316814
 H        -2.708371         0.758473         0.100298
 H        -1.995834         2.123841        -0.827758
