19
Iteration:   648charge 0 multiplicity 1
 O        -0.154007         0.258305        -0.092527
 C        -0.668348         1.381051         0.603776
 C         0.350318         2.633033         0.822386
 C        -0.276178         3.388668         1.917300
 C        -1.196608         2.461204         2.653694
 C        -0.992039         1.068423         2.037064
 C        -1.847653         3.547733         1.800273
 O        -2.488297         3.163116         0.581604
 C        -2.066833         1.903253        -0.044843
 H         0.624412        -0.135854         0.409791
 H         1.265665         2.182329         1.254172
 H         0.614482         3.188699        -0.081009
 H         0.403226         4.217756         2.355797
 H        -1.365103         2.569833         3.712291
 H        -0.132381         0.574041         2.615898
 H        -1.893740         0.532346         2.036261
 H        -2.350403         4.419736         2.124879
 H        -2.756110         1.054927         0.133162
 H        -1.999539         2.116594        -1.076313
