19
Iteration:  3134charge 0 multiplicity 1
 O         0.028780         0.415880        -0.144594
 C        -0.761566         1.342520         0.638293
 C         0.092060         2.642118         0.551031
 C        -0.344284         3.481581         1.726950
 C        -1.067035         2.532497         2.693920
 C        -0.837686         1.046981         2.194335
 C        -1.791147         3.513690         1.788867
 O        -2.488713         3.095069         0.650779
 C        -2.130956         1.745682         0.207158
 H        -0.449403        -0.442434        -0.169443
 H         1.234049         2.537132         0.476511
 H        -0.179075         3.196621        -0.360357
 H         0.267389         4.151691         2.200444
 H        -1.130609         2.747904         3.703687
 H         0.087071         0.619956         2.491413
 H        -1.540998         0.331064         2.712732
 H        -2.137091         4.408561         2.275556
 H        -2.882114         1.026156         0.649106
 H        -2.046296         1.655632        -0.896256
