19
Iteration:  4814charge 0 multiplicity 1
 O        -0.267504         0.169679         0.016393
 C        -0.683236         1.399138         0.643956
 C         0.179015         2.701839         0.478516
 C        -0.339345         3.522534         1.672485
 C        -1.013135         2.551019         2.696828
 C        -0.628740         1.233785         2.153477
 C        -1.807010         3.530704         1.794184
 O        -2.683631         2.884113         0.812248
 C        -2.049657         1.806356         0.077216
 H         0.222813         0.425330        -0.778188
 H         1.205252         2.446723         0.713504
 H         0.150991         3.202936        -0.528272
 H         0.109774         4.526195         1.819281
 H        -0.895551         2.811014         3.744676
 H         0.373875         0.934726         2.406209
 H        -1.236214         0.438520         2.542845
 H        -2.290197         4.389721         2.304511
 H        -2.697171         0.923146         0.081304
 H        -1.863870         2.143856        -0.958019
