19
Iteration:  3555charge 0 multiplicity 1
 O        -0.193817         0.296559        -0.140252
 C        -0.638291         1.405901         0.641824
 C         0.265773         2.742799         0.517773
 C        -0.347657         3.596495         1.632236
 C        -0.933751         2.662646         2.681482
 C        -0.642405         1.223727         2.194056
 C        -1.859563         3.423713         1.771314
 O        -2.710210         2.832103         0.801528
 C        -2.112812         1.686800         0.240553
 H        -0.899004         0.135699        -0.810688
 H         1.279052         2.319211         0.718104
 H         0.225787         3.190670        -0.526408
 H         0.094692         4.570975         1.919082
 H        -0.972798         2.826057         3.815158
 H         0.305890         0.700446         2.555795
 H        -1.437804         0.489876         2.437328
 H        -2.354960         4.313182         2.266148
 H        -2.698896         0.837675         0.620608
 H        -2.084671         1.709195        -0.927907
