19
Iteration:  3031
 O        -0.153270         0.283362        -0.012275
 C        -0.709435         1.413268         0.636919
 C         0.375437         2.506927         0.669168
 C        -0.329378         3.511712         1.566114
 C        -0.936374         2.671230         2.650549
 C        -0.935258         1.186880         2.058305
 C        -1.874222         3.455239         1.741820
 O        -2.715352         2.772520         1.013348
 C        -2.015181         2.008381        -0.028200
 H         0.171396         0.665037        -0.867016
 H         1.260994         2.057334         1.320606
 H         0.611602         2.744348        -0.358253
 H        -0.005924         4.481600         1.935350
 H        -0.943708         2.758442         3.761346
 H        -0.088735         0.571049         2.366217
 H        -1.847089         0.674283         2.231026
 H        -2.176356         4.334765         2.185390
 H        -2.566453         1.163491        -0.414353
 H        -1.665052         2.660191        -0.904332
