19
Iteration:  4533charge 0 multiplicity 1
 O        -0.141056         0.368912        -0.205959
 C        -0.665113         1.384941         0.693999
 C         0.201993         2.700059         0.511048
 C        -0.228591         3.527709         1.650805
 C        -1.005387         2.664027         2.721877
 C        -0.918236         1.178621         2.240584
 C        -1.756471         3.474448         1.778579
 O        -2.589636         2.909143         0.782418
 C        -2.060401         1.645476         0.137745
 H        -0.703180        -0.419132        -0.197889
 H         1.347935         2.516393         0.549796
 H        -0.134717         3.146111        -0.429148
 H         0.283996         4.407918         1.971819
 H        -1.064513         2.808008         3.856769
 H        -0.140560         0.683702         2.882700
 H        -1.861391         0.578258         2.376986
 H        -2.311707         4.397739         2.139972
 H        -2.687247         0.761359         0.499004
 H        -2.074480         1.828892        -0.896602
