19
Iteration:  4868
 O        -0.256092         0.322970        -0.201938
 C        -0.611705         1.387274         0.693000
 C         0.199294         2.645101         0.507498
 C        -0.283657         3.581287         1.614183
 C        -0.899323         2.715589         2.649045
 C        -0.956607         1.248068         2.168881
 C        -1.830735         3.514911         1.807033
 O        -2.606433         2.697672         0.975236
 C        -1.990849         1.763204         0.107867
 H         0.423574        -0.205063         0.237665
 H         1.308089         2.460498         0.507921
 H         0.035508         2.922323        -0.603394
 H         0.249863         4.474788         1.980005
 H        -0.975507         2.991905         3.662317
 H        -0.208111         0.557714         2.582401
 H        -1.904024         0.898825         2.312674
 H        -2.327493         4.442907         1.951527
 H        -2.598557         0.820827         0.134302
 H        -1.955130         2.092178        -0.906646
