19
Iteration:  2396
 O        -0.148384         0.299210        -0.110261
 C        -0.739595         1.404141         0.645288
 C         0.274413         2.601290         0.636680
 C        -0.231206         3.404007         1.736951
 C        -1.039904         2.583456         2.818801
 C        -1.110243         1.223867         2.162317
 C        -1.816753         3.476910         1.857484
 O        -2.603066         2.876533         0.746105
 C        -1.912837         1.970157        -0.196035
 H         0.112216        -0.447117         0.486590
 H         1.316383         2.292001         0.812662
 H         0.357468         3.065341        -0.352256
 H         0.284380         4.332859         1.966711
 H        -0.750390         2.726641         3.920591
 H        -0.313555         0.608641         2.598173
 H        -1.946820         0.669225         2.485905
 H        -2.257554         4.453434         2.218038
 H        -2.660586         1.234246        -0.284293
 H        -1.442944         2.342839        -1.169671
