19
Iteration:  1356
 O        -0.089386         0.288506        -0.000366
 C        -0.752245         1.405865         0.563032
 C         0.262491         2.622478         0.697090
 C        -0.245911         3.371744         1.891863
 C        -1.177022         2.491949         2.711553
 C        -1.005607         1.079528         2.084708
 C        -1.865476         3.381596         1.845026
 O        -2.415052         3.203740         0.563267
 C        -2.034535         1.942986        -0.107448
 H         0.563290        -0.039212         0.647104
 H         1.299324         2.196404         0.816381
 H         0.044339         3.278135        -0.187847
 H         0.159793         4.327046         2.353139
 H        -1.541905         2.510930         3.846489
 H        -0.088771         0.556616         2.362437
 H        -1.746111         0.205324         2.440657
 H        -2.258781         4.303952         2.347872
 H        -2.850188         1.273836         0.074878
 H        -1.917482         2.022423        -1.150840
