19
Iteration:  4660charge 0 multiplicity 1
 O        -0.092510         0.242768        -0.055835
 C        -0.702260         1.405358         0.678942
 C         0.270312         2.582465         0.472212
 C        -0.273314         3.504701         1.539123
 C        -1.116161         2.598115         2.677606
 C        -0.796445         1.144716         2.146858
 C        -1.809268         3.474313         1.797979
 O        -2.715580         2.932611         0.909339
 C        -2.107408         1.893444         0.146774
 H         0.846860         0.512230        -0.192768
 H         1.249684         2.359936         0.731782
 H         0.263990         2.884708        -0.578516
 H         0.273133         4.367379         1.833935
 H        -1.083557         3.021734         3.744888
 H         0.193083         0.795655         2.528076
 H        -1.587450         0.342709         2.250704
 H        -2.326230         4.359467         2.191439
 H        -2.864881         1.165232         0.045727
 H        -1.862460         2.198330        -0.920886
