19
Iteration:  4141charge 0 multiplicity 1
 O        -0.207901         0.169759         0.079753
 C        -0.706655         1.450655         0.544990
 C         0.287450         2.743023         0.439284
 C        -0.314375         3.596217         1.556747
 C        -0.917870         2.632001         2.554288
 C        -0.617360         1.289524         2.104770
 C        -1.868508         3.374966         1.809172
 O        -2.763014         2.868859         0.930979
 C        -2.182488         1.702676         0.236209
 H         0.387286         0.397043        -0.636056
 H         1.385835         2.558392         0.590547
 H         0.264440         3.211011        -0.659376
 H         0.206656         4.457315         2.071375
 H        -0.921876         2.824608         3.635574
 H         0.526202         1.139692         2.162815
 H        -1.184798         0.444019         2.342668
 H        -2.415584         4.262834         2.370752
 H        -2.796422         0.808854         0.629710
 H        -2.323806         1.858662        -0.818888
