19
Iteration:    24
 O        -0.358547         0.348333        -0.274514
 C        -0.640069         1.380318         0.755789
 C         0.401572         2.573470         0.867679
 C        -0.333680         3.579495         1.803313
 C        -1.085278         2.514325         2.724913
 C        -1.070529         1.030167         2.235917
 C        -1.853531         3.426609         1.780506
 O        -2.493176         3.035684         0.546938
 C        -1.830880         1.925260        -0.055907
 H         0.440738        -0.170540        -0.056091
 H         1.318090         2.248077         1.265554
 H         0.651670         3.011438        -0.140395
 H         0.188223         4.368914         2.162316
 H        -1.293530         2.625358         3.793141
 H        -0.410636         0.354242         2.732041
 H        -2.144885         0.707530         2.340399
 H        -2.428638         4.237818         2.229568
 H        -2.558030         1.105885        -0.225643
 H        -1.423750         2.273951        -1.020606
