19
Iteration:   368charge 0 multiplicity 1
 O        -0.360086         0.353867        -0.178840
 C        -0.601562         1.400488         0.694668
 C         0.388765         2.530634         0.810987
 C        -0.303510         3.431361         1.915614
 C        -1.172441         2.517182         2.674917
 C        -1.061716         1.129393         2.131559
 C        -1.832718         3.548596         1.820582
 O        -2.524328         3.012440         0.588304
 C        -1.765472         1.909853        -0.080645
 H         0.514205        -0.084533        -0.077016
 H         1.242536         2.009910         1.233745
 H         0.488235         3.034630        -0.256992
 H         0.032576         4.273763         2.313371
 H        -1.360180         2.676721         3.790647
 H        -0.183101         0.683341         2.581989
 H        -1.974823         0.358095         2.050166
 H        -2.582895         4.329470         2.247504
 H        -2.476968         1.088728        -0.154421
 H        -1.600978         2.222486        -1.101794
