19
Iteration:   696charge 0 multiplicity 1
 O        -0.236784         0.359122        -0.193226
 C        -0.674114         1.340420         0.740234
 C         0.237065         2.632380         0.739523
 C        -0.336217         3.426964         1.932427
 C        -1.211438         2.452723         2.669265
 C        -1.028355         1.000038         2.185298
 C        -1.776044         3.545518         1.734904
 O        -2.366497         3.119102         0.536873
 C        -1.916374         1.893518         0.005034
 H         0.424326        -0.222520         0.156456
 H         1.404387         2.587460         0.760784
 H        -0.052366         3.274462        -0.131068
 H         0.175298         4.046369         2.572053
 H        -1.212115         2.689043         3.760316
 H        -0.133440         0.572096         2.733581
 H        -1.970646         0.358277         2.216388
 H        -2.522132         4.395750         2.082078
 H        -2.706450         1.075136         0.048388
 H        -1.518857         2.136610        -0.991819
