19
Iteration:  1785
 O        -0.305630         0.292520        -0.060970
 C        -0.706533         1.410322         0.669651
 C         0.317611         2.558248         0.792807
 C        -0.349809         3.441392         1.824021
 C        -1.227769         2.377555         2.726785
 C        -0.922478         1.025085         2.151885
 C        -1.845978         3.441649         1.824621
 O        -2.409347         3.212471         0.488420
 C        -1.914071         2.006086        -0.109593
 H         0.561413        -0.048043         0.280793
 H         1.313977         2.304156         1.277385
 H         0.508282         3.118929        -0.117111
 H         0.231039         4.103611         2.442121
 H        -1.383423         2.650174         3.778639
 H         0.141183         0.716616         2.451059
 H        -1.648336         0.210961         2.406254
 H        -2.388904         4.338914         2.156662
 H        -2.748417         1.324524        -0.099418
 H        -1.598452         2.140040        -1.191982
