19
Iteration:   637
 O        -0.210118         0.288501        -0.141196
 C        -0.649561         1.430194         0.640843
 C         0.313810         2.555523         0.752538
 C        -0.294000         3.477808         1.917497
 C        -1.232032         2.477806         2.669991
 C        -1.044263         1.077867         2.081479
 C        -1.775450         3.504068         1.766613
 O        -2.514804         3.139635         0.580873
 C        -1.901276         1.880877         0.001865
 H         0.531599        -0.081984         0.374763
 H         1.295148         2.149552         1.060683
 H         0.480378         3.154135        -0.157310
 H         0.220859         4.334490         2.533917
 H        -1.477968         2.472482         3.723531
 H        -0.190475         0.492936         2.598642
 H        -1.855238         0.399622         2.197090
 H        -2.242148         4.223268         2.393208
 H        -2.738942         1.188343         0.078867
 H        -1.666488         2.033375        -1.024988
