19
Iteration:  3097
 O        -0.218461         0.259717        -0.086952
 C        -0.696878         1.461434         0.615100
 C         0.253949         2.738282         0.585188
 C        -0.322097         3.535612         1.774009
 C        -0.964725         2.509836         2.636287
 C        -0.878192         1.120059         2.094634
 C        -1.788891         3.452995         1.820861
 O        -2.596481         2.972308         0.746559
 C        -2.062006         1.766070         0.070230
 H         0.593483         0.114881         0.425240
 H         1.364677         2.359472         0.857226
 H         0.219033         3.137703        -0.455086
 H         0.158999         4.480797         2.264388
 H        -1.098146         2.827797         3.718678
 H         0.106652         0.700064         2.364843
 H        -1.772781         0.550375         2.299969
 H        -2.330470         4.303360         2.288290
 H        -2.739395         0.978050         0.391071
 H        -2.193198         1.880047        -1.072713
