19
Iteration:  1570charge 0 multiplicity 1
 O        -0.199671         0.330464        -0.099373
 C        -0.710792         1.445153         0.621310
 C         0.191693         2.643076         0.702377
 C        -0.315543         3.413197         1.976553
 C        -1.182964         2.447228         2.741366
 C        -1.017137         1.064936         2.153409
 C        -1.809667         3.443086         1.801582
 O        -2.323042         3.119444         0.459680
 C        -1.952898         1.900544        -0.034529
 H         0.514750        -0.038584         0.406072
 H         1.243598         2.314623         0.960236
 H        -0.003842         3.184309        -0.246557
 H         0.236859         4.232403         2.409922
 H        -1.109085         2.509737         3.894323
 H        -0.102993         0.525839         2.592521
 H        -1.952533         0.455557         2.271591
 H        -2.520001         4.298401         2.118681
 H        -2.787890         1.188852         0.166095
 H        -1.815455         1.908640        -1.098511
