19
Iteration:   920
 O        -0.135157         0.315806        -0.108413
 C        -0.704483         1.363193         0.633052
 C         0.279842         2.583963         0.729838
 C        -0.358649         3.359175         1.859893
 C        -1.204683         2.479143         2.732263
 C        -0.991106         1.042109         2.193429
 C        -1.824905         3.493664         1.756637
 O        -2.514543         3.109233         0.600824
 C        -1.908675         1.999252        -0.092972
 H         0.591123         0.053558         0.503796
 H         1.209647         2.134902         1.108136
 H         0.331765         3.183386        -0.211254
 H         0.316568         4.091577         2.233162
 H        -1.233180         2.774590         3.833362
 H         0.014301         0.722247         2.506393
 H        -1.769471         0.242394         2.347594
 H        -2.364835         4.431860         2.202944
 H        -2.682773         1.322419        -0.338734
 H        -1.702699         2.455182        -1.021397
