19
Iteration:  2815
 O        -0.208200         0.307401        -0.143251
 C        -0.718600         1.380793         0.666718
 C         0.286096         2.473510         0.638200
 C        -0.296430         3.537325         1.544385
 C        -0.959834         2.733873         2.733086
 C        -0.918344         1.192816         2.193908
 C        -1.856425         3.502294         1.789033
 O        -2.684080         2.707800         0.933800
 C        -1.932103         1.962225        -0.006482
 H         0.052674         0.762625        -0.951815
 H         1.187075         2.109373         1.163971
 H         0.782642         2.729252        -0.348434
 H         0.173325         4.474891         1.712208
 H        -0.975568         2.800988         3.836978
 H        -0.041964         0.668499         2.646203
 H        -1.873789         0.673654         2.457260
 H        -2.336319         4.447853         2.086841
 H        -2.514894         1.081265        -0.378726
 H        -1.669828         2.659948        -0.774686
