19
Iteration:   184charge 0 multiplicity 1
 O        -0.227541         0.305890        -0.127671
 C        -0.686408         1.411407         0.662301
 C         0.232749         2.708183         0.698337
 C        -0.294821         3.447566         1.944634
 C        -1.193997         2.436959         2.749013
 C        -1.045237         1.073732         2.148999
 C        -1.782090         3.480195         1.771177
 O        -2.342990         3.142672         0.521021
 C        -1.959145         1.823687        -0.038171
 H         0.439633        -0.195770         0.322261
 H         1.295023         2.513363         0.766738
 H        -0.041496         3.295188        -0.099358
 H         0.270562         4.022578         2.604931
 H        -1.186359         2.564786         3.852373
 H        -0.392441         0.332780         2.717975
 H        -2.013026         0.594959         2.123074
 H        -2.437624         4.267026         2.157385
 H        -2.766786         0.994354        -0.089006
 H        -1.519613         1.919809        -1.099323
