19
Iteration:   803
 O        -0.296711         0.290696        -0.091900
 C        -0.636189         1.469418         0.659198
 C         0.371477         2.627564         0.790441
 C        -0.257268         3.525233         1.942105
 C        -1.124481         2.473265         2.687903
 C        -1.103962         1.076592         2.087867
 C        -1.812939         3.416980         1.729211
 O        -2.513291         2.947579         0.675767
 C        -1.864960         1.984273        -0.152333
 H         0.570719        -0.057779         0.063911
 H         1.331126         2.388453         1.218670
 H         0.381746         3.191505        -0.106244
 H         0.108249         4.432970         2.331731
 H        -1.420902         2.629327         3.770459
 H        -0.438044         0.340329         2.622063
 H        -2.093759         0.770539         2.059067
 H        -2.493776         4.347867         2.103851
 H        -2.548385         1.098016        -0.349836
 H        -1.530207         2.222713        -1.194079
