19
Iteration:  4260charge 0 multiplicity 1
 O        -0.301228         0.305106        -0.111389
 C        -0.720067         1.329905         0.706205
 C         0.119166         2.772358         0.458335
 C        -0.410062         3.608835         1.559603
 C        -0.792476         2.635581         2.709573
 C        -0.635339         1.166164         2.262311
 C        -1.849913         3.413771         1.830881
 O        -2.575496         2.876419         0.742595
 C        -2.134908         1.677212         0.163592
 H         0.487614        -0.182853         0.270369
 H         1.201183         2.596005         0.445080
 H        -0.061702         3.303442        -0.524101
 H        -0.030353         4.701180         1.600127
 H        -0.468350         2.934874         3.705119
 H         0.382329         0.996643         2.644014
 H        -1.346474         0.440046         2.613531
 H        -2.524193         4.126041         2.474110
 H        -2.865725         0.935565         0.109359
 H        -1.904709         2.050379        -0.927300
