19
Iteration:  2406charge 0 multiplicity 1
 O        -0.161033         0.347200        -0.051139
 C        -0.724882         1.410182         0.653869
 C         0.265706         2.570315         0.547989
 C        -0.335355         3.369856         1.742269
 C        -1.044303         2.583869         2.770780
 C        -1.035274         1.185530         2.216903
 C        -1.796931         3.513458         1.852237
 O        -2.581856         2.907277         0.737589
 C        -1.854678         1.946139        -0.153905
 H        -0.436122        -0.526328         0.327333
 H         1.237507         2.107661         0.767222
 H         0.131050         3.178848        -0.295981
 H         0.294287         4.127043         2.136972
 H        -0.774310         2.740915         3.852503
 H        -0.124833         0.673771         2.578199
 H        -1.979861         0.643331         2.319116
 H        -2.450201         4.321837         2.273318
 H        -2.429682         1.204260        -0.640190
 H        -1.505805         2.563670        -1.065860
