19
Iteration:  3007charge 0 multiplicity 1
 O        -0.152647         0.232333         0.009754
 C        -0.654291         1.442183         0.526327
 C         0.346685         2.713995         0.558099
 C        -0.232279         3.495299         1.691315
 C        -0.967633         2.627004         2.741331
 C        -1.035277         1.202264         2.119931
 C        -1.770052         3.520247         1.867670
 O        -2.684247         2.757280         0.890658
 C        -2.068075         1.846617        -0.058444
 H        -0.079312         0.283825        -0.967804
 H         1.413948         2.431590         0.867371
 H         0.286889         3.240152        -0.438169
 H         0.273277         4.282685         2.122619
 H        -0.902857         2.790423         3.800299
 H        -0.508634         0.387115         2.641818
 H        -2.066903         0.963855         2.014102
 H        -2.179342         4.452012         2.244173
 H        -2.598527         0.883163        -0.165849
 H        -1.909726         2.327860        -1.070683
