19
Iteration:  4678charge 0 multiplicity 1
 O        -0.262659         0.226301        -0.026652
 C        -0.680612         1.381484         0.637807
 C         0.168521         2.694173         0.531735
 C        -0.351206         3.538286         1.707770
 C        -0.884960         2.555168         2.685150
 C        -0.778228         1.191817         2.231874
 C        -1.807723         3.498759         1.782492
 O        -2.669719         2.894148         0.783909
 C        -2.028651         1.818082        -0.015718
 H         0.695284         0.285784        -0.240283
 H         1.318589         2.485939         0.546040
 H         0.013532         3.256856        -0.447369
 H         0.186441         4.473343         1.930982
 H        -0.813245         2.688332         3.728163
 H         0.198276         0.749188         2.605490
 H        -1.549225         0.576532         2.566086
 H        -2.299101         4.307910         2.241553
 H        -2.762534         0.955727         0.019684
 H        -1.958770         2.210066        -0.999056
