19
Iteration:  2603charge 0 multiplicity 1
 O        -0.127814         0.314234        -0.013014
 C        -0.634261         1.512412         0.570342
 C         0.401231         2.573732         0.591389
 C        -0.285066         3.409324         1.620564
 C        -0.984898         2.650623         2.715816
 C        -1.038293         1.245472         2.061860
 C        -1.854571         3.465933         1.787216
 O        -2.701631         2.790729         0.937906
 C        -1.955803         1.927751        -0.008852
 H        -0.777713        -0.382741         0.163694
 H         1.380124         2.177341         0.932114
 H         0.654661         3.003000        -0.325324
 H         0.130525         4.379864         1.882649
 H        -0.876866         2.846065         3.780432
 H        -0.292701         0.462686         2.376925
 H        -2.002264         0.721048         1.980587
 H        -2.390340         4.244118         2.189035
 H        -2.668592         1.075711        -0.091810
 H        -1.894925         2.427705        -0.943332
