19
Iteration:  3165
 O        -0.280486         0.252145        -0.079992
 C        -0.658934         1.462625         0.573310
 C         0.227396         2.729235         0.603160
 C        -0.376161         3.515016         1.768799
 C        -1.034025         2.529780         2.781173
 C        -0.707338         1.170931         2.172103
 C        -1.848609         3.377625         1.794884
 O        -2.493839         3.045219         0.561581
 C        -2.058196         1.709422         0.202792
 H        -0.339553         0.390739        -1.072738
 H         1.390310         2.505656         0.729337
 H         0.204644         3.370492        -0.281766
 H         0.034342         4.385983         2.230606
 H        -1.197818         2.645565         3.812436
 H         0.251810         0.755278         2.472267
 H        -1.513791         0.467148         2.422803
 H        -2.341864         4.237593         2.251643
 H        -2.634996         0.916573         0.694539
 H        -2.224396         1.688706        -0.925269
