19
Iteration:  3448charge 0 multiplicity 1
 O        -0.205180         0.317386        -0.165027
 C        -0.687903         1.383451         0.685808
 C         0.180456         2.639288         0.550685
 C        -0.358515         3.572454         1.588150
 C        -0.894937         2.634545         2.671347
 C        -0.696630         1.167160         2.228715
 C        -1.848897         3.473653         1.729014
 O        -2.755403         2.832074         0.917881
 C        -2.044842         1.782251         0.090879
 H         0.749061         0.373312         0.110587
 H         1.177980         2.265612         0.718053
 H         0.230242         2.903234        -0.529090
 H         0.147218         4.551858         1.764120
 H        -0.799649         2.864599         3.813850
 H         0.243021         0.687045         2.488796
 H        -1.533082         0.569783         2.570007
 H        -2.297529         4.363363         2.283713
 H        -2.806522         1.012487        -0.157332
 H        -1.771906         2.235401        -0.844757
