19
Iteration:  4267charge 0 multiplicity 1
 O        -0.300571         0.307301        -0.083405
 C        -0.697616         1.348616         0.723247
 C         0.091306         2.725022         0.423045
 C        -0.386112         3.632293         1.550018
 C        -0.784192         2.666754         2.728463
 C        -0.644460         1.202171         2.240456
 C        -1.837060         3.371436         1.886971
 O        -2.593606         2.910043         0.761258
 C        -2.118896         1.652095         0.102341
 H         0.666284         0.157978         0.055306
 H         1.181996         2.554332         0.445827
 H        -0.134540         3.136336        -0.518830
 H         0.066643         4.682865         1.684065
 H        -0.674424         2.854701         3.815154
 H         0.322566         0.723348         2.474703
 H        -1.446753         0.481417         2.714953
 H        -2.552009         4.095044         2.341194
 H        -2.995318         0.886247        -0.000265
 H        -1.842740         1.825295        -0.913735
