19
Iteration:  1617
 O        -0.105232         0.331128        -0.104124
 C        -0.711252         1.405023         0.630312
 C         0.357465         2.556670         0.771482
 C        -0.324161         3.311437         1.859949
 C        -1.231980         2.480844         2.715290
 C        -1.051359         1.116398         2.088675
 C        -1.843023         3.504966         1.765083
 O        -2.422137         3.184149         0.526525
 C        -2.034724         1.874937         0.059451
 H         0.721279         0.122207         0.406518
 H         1.348888         2.133620         0.975717
 H         0.271062         3.163321        -0.139463
 H         0.190095         4.112081         2.452357
 H        -1.309103         2.544409         3.787555
 H        -0.012869         0.643237         2.424545
 H        -1.796497         0.378055         2.070328
 H        -2.245723         4.309697         2.191660
 H        -2.921266         1.275453         0.191871
 H        -1.971361         2.134444        -1.016470
