19
Iteration:  4503charge 0 multiplicity 1
 O        -0.162276         0.258154        -0.040822
 C        -0.712776         1.366483         0.674617
 C         0.181264         2.678735         0.495008
 C        -0.314684         3.528555         1.623307
 C        -0.982965         2.574394         2.726782
 C        -0.741431         1.127226         2.198408
 C        -1.840680         3.516928         1.805705
 O        -2.588703         2.993140         0.750388
 C        -2.084102         1.722088         0.115632
 H        -0.400264         0.366957        -0.988827
 H         1.184622         2.492000         0.669785
 H         0.003006         3.164253        -0.491792
 H         0.269008         4.396813         2.079884
 H        -0.962614         2.903138         3.798352
 H         0.263823         0.855006         2.711291
 H        -1.384670         0.378082         2.532336
 H        -2.395208         4.474812         2.190028
 H        -2.802191         0.892586         0.279854
 H        -2.046634         1.935693        -1.006206
