19
Iteration:  1271charge 0 multiplicity 1
 O        -0.130234         0.330299        -0.108515
 C        -0.740490         1.363039         0.665737
 C         0.274353         2.524929         0.835645
 C        -0.300234         3.477115         1.796098
 C        -1.167638         2.476930         2.651095
 C        -1.008663         1.109097         2.129969
 C        -1.785812         3.500429         1.749519
 O        -2.559057         2.985386         0.671736
 C        -1.928883         2.042271        -0.100955
 H         0.650959         0.038473         0.358032
 H         1.226134         2.138695         1.225248
 H         0.457767         2.793816        -0.213720
 H         0.284129         4.328673         2.355144
 H        -1.193296         2.595205         3.795217
 H        -0.080074         0.613661         2.475229
 H        -1.997258         0.508693         2.181404
 H        -2.343423         4.309324         2.235860
 H        -2.804603         1.313942        -0.266539
 H        -1.520327         2.442242        -1.092600
