19
Iteration:  3014charge 0 multiplicity 1
 O        -0.138037         0.257287         0.009071
 C        -0.683566         1.461133         0.498463
 C         0.369885         2.643793         0.621034
 C        -0.226850         3.509098         1.617466
 C        -0.970673         2.566332         2.707903
 C        -1.044510         1.237495         2.121805
 C        -1.784872         3.520888         1.867355
 O        -2.713474         2.708957         0.903680
 C        -2.041468         1.921501        -0.012310
 H         0.055637         0.282982        -0.961626
 H         1.282776         2.301837         0.976617
 H         0.522133         3.179028        -0.399872
 H         0.392584         4.435626         1.931505
 H        -0.799092         2.887342         3.744962
 H        -0.438170         0.508656         2.709028
 H        -2.124909         0.807613         2.125493
 H        -2.288038         4.515555         2.266386
 H        -2.609529         0.949470        -0.258306
 H        -2.019071         2.394979        -0.990059
