19
Iteration:  3190charge 0 multiplicity 1
 O        -0.321435         0.204939        -0.100143
 C        -0.647447         1.432786         0.628872
 C         0.262132         2.663454         0.630024
 C        -0.368228         3.610490         1.716100
 C        -1.053141         2.541800         2.612387
 C        -0.631523         1.099187         2.145859
 C        -1.857972         3.458344         1.814467
 O        -2.643130         3.034428         0.706678
 C        -2.045091         1.784867         0.121781
 H         0.654466         0.168794        -0.301322
 H         1.322497         2.510389         1.014180
 H         0.475464         3.133756        -0.375590
 H         0.022061         4.341522         2.354339
 H        -1.099081         2.650263         3.713724
 H         0.335955         0.868110         2.524202
 H        -1.437664         0.358254         2.396564
 H        -2.349456         4.199603         2.396526
 H        -2.699254         0.872816         0.267982
 H        -1.942087         2.033363        -0.938302
