19
Iteration:  1239charge 0 multiplicity 1
 O        -0.204483         0.210922        -0.071706
 C        -0.599905         1.420540         0.659386
 C         0.355327         2.628880         0.729126
 C        -0.326553         3.403272         1.847208
 C        -1.100998         2.446079         2.782522
 C        -1.129758         1.204060         2.051753
 C        -1.835455         3.475726         1.824997
 O        -2.615610         2.959732         0.654127
 C        -1.834316         2.046328        -0.126456
 H         0.695685         0.035955         0.351305
 H         1.427323         2.452260         0.893847
 H         0.218203         3.185572        -0.208985
 H         0.172727         4.415843         2.220387
 H        -0.844127         2.680735         3.846290
 H        -0.450489         0.400440         2.427660
 H        -2.113269         0.676125         2.065835
 H        -2.297854         4.423160         2.104014
 H        -2.586498         1.163784        -0.208397
 H        -1.678338         2.389093        -1.237127
