19
Iteration:  1708charge 0 multiplicity 1
 O        -0.065766         0.302191        -0.092037
 C        -0.721675         1.449098         0.594518
 C         0.312144         2.486424         0.752810
 C        -0.251573         3.385940         1.877482
 C        -1.084712         2.515844         2.786857
 C        -1.281966         1.180081         2.087123
 C        -1.750807         3.517404         1.790988
 O        -2.570564         2.948166         0.721492
 C        -1.908213         1.996916        -0.236111
 H         0.608022         0.062786         0.584169
 H         1.295021         2.110366         1.048866
 H         0.579206         3.041120        -0.136485
 H         0.385372         4.132877         2.312050
 H        -0.956571         2.781473         3.851967
 H        -0.621638         0.385349         2.589190
 H        -2.394602         0.905048         2.082729
 H        -2.443565         4.379371         2.192719
 H        -2.701577         1.270567        -0.464133
 H        -1.559582         2.599146        -1.184045
