19
Iteration:   687
 O        -0.203595         0.367997        -0.133926
 C        -0.649406         1.396158         0.704991
 C         0.194202         2.612816         0.787586
 C        -0.290815         3.415516         1.900768
 C        -1.202953         2.451914         2.667438
 C        -0.992480         1.023274         2.112383
 C        -1.829285         3.539973         1.736881
 O        -2.375650         3.129856         0.519401
 C        -1.953754         1.877968         0.030943
 H         0.447111        -0.070336         0.402059
 H         1.308433         2.372561         0.862472
 H         0.059316         3.100989        -0.251512
 H         0.475693         4.003471         2.410324
 H        -1.415073         2.498238         3.762337
 H        -0.246369         0.422534         2.639822
 H        -1.986521         0.409045         2.179808
 H        -2.327513         4.274572         2.454434
 H        -2.899556         1.314654        -0.017507
 H        -1.682452         1.964875        -1.116186
