19
Iteration:  1975
 O        -0.283784         0.311713        -0.090026
 C        -0.691712         1.477478         0.637034
 C         0.382945         2.563490         0.781538
 C        -0.208934         3.441529         1.943129
 C        -1.167627         2.515434         2.776959
 C        -1.095413         1.154279         2.088432
 C        -1.831226         3.440485         1.748552
 O        -2.548996         2.949882         0.615427
 C        -1.852815         1.968609        -0.184279
 H         0.342881        -0.128169         0.499876
 H         1.465349         2.232221         1.122208
 H         0.530709         3.148675        -0.157945
 H         0.424790         4.220203         2.361337
 H        -1.368187         2.529230         3.860902
 H        -0.416407         0.433453         2.554367
 H        -2.131256         0.643457         2.153514
 H        -2.211938         4.454193         2.092701
 H        -2.524977         1.149565        -0.483398
 H        -1.448171         2.454200        -1.115644
