19
Iteration:  2178charge 0 multiplicity 1
 O         0.047924         0.288161         0.021294
 C        -0.708398         1.425639         0.602221
 C         0.285075         2.526584         0.727049
 C        -0.252504         3.340248         1.832792
 C        -1.042290         2.531923         2.788567
 C        -1.213588         1.133474         2.085431
 C        -1.760719         3.512190         1.740163
 O        -2.647030         3.046424         0.692927
 C        -1.966454         2.028502        -0.157430
 H        -0.581561        -0.404376        -0.207248
 H         1.221395         2.010771         0.918295
 H         0.422072         2.926960        -0.320340
 H         0.381019         4.206516         2.119923
 H        -1.024091         2.779337         3.856290
 H        -0.459472         0.472437         2.574165
 H        -2.205726         0.750262         2.125467
 H        -2.179904         4.364030         2.311080
 H        -2.676267         1.214276        -0.364111
 H        -1.630988         2.405879        -1.066463
