19
Iteration:   913charge 0 multiplicity 1
 O        -0.141865         0.305072        -0.085973
 C        -0.655167         1.364371         0.591346
 C         0.256019         2.539929         0.746650
 C        -0.318194         3.414637         1.935623
 C        -1.180068         2.459322         2.673903
 C        -1.007737         1.059631         2.127571
 C        -1.845247         3.562712         1.796729
 O        -2.544404         3.084614         0.602685
 C        -1.926787         1.983994        -0.096207
 H         0.640963        -0.003797         0.472650
 H         1.307385         2.314845         1.021735
 H         0.378386         3.190376        -0.088050
 H         0.446556         4.120873         2.262122
 H        -1.185524         2.667258         3.716813
 H        -0.105158         0.578327         2.615374
 H        -1.830015         0.462029         2.330413
 H        -2.454981         4.425665         2.224678
 H        -2.748114         1.179890        -0.169686
 H        -1.581337         2.274003        -1.172560
