19
Iteration:   672charge 0 multiplicity 1
 O        -0.113111         0.310554        -0.069122
 C        -0.728110         1.433677         0.596993
 C         0.300170         2.583549         0.718543
 C        -0.292456         3.424466         1.906639
 C        -1.203076         2.418270         2.731541
 C        -1.040165         1.082435         2.075539
 C        -1.790220         3.428607         1.816379
 O        -2.409898         3.223325         0.521226
 C        -2.066263         1.878559        -0.031712
 H         0.578698        -0.032493         0.515144
 H         1.256357         2.075898         1.120565
 H         0.560022         3.198483        -0.118639
 H         0.098916         4.340036         2.334419
 H        -1.397315         2.520716         3.794077
 H        -0.079916         0.609350         2.519095
 H        -1.905155         0.478654         2.134586
 H        -2.337136         4.270987         2.210093
 H        -2.764855         1.076404         0.325733
 H        -2.029692         1.991675        -1.052480
