19
Iteration:  4921
 O        -0.194372         0.270211        -0.044453
 C        -0.636361         1.423243         0.659129
 C         0.259194         2.628958         0.522349
 C        -0.419181         3.617703         1.471785
 C        -0.913962         2.572410         2.640708
 C        -0.707060         1.170733         2.185002
 C        -1.854986         3.420016         1.895432
 O        -2.740296         2.982880         0.810943
 C        -2.105812         1.805281         0.113590
 H         0.297940        -0.339091         0.523945
 H         1.157182         2.066429         0.940852
 H         0.532161         3.017893        -0.499145
 H         0.302656         4.372761         1.798909
 H        -0.722876         2.792130         3.672757
 H         0.494515         0.951358         2.285573
 H        -1.390453         0.344344         2.340289
 H        -2.535880         3.963533         2.451812
 H        -2.995910         0.994151         0.046196
 H        -1.891310         2.190507        -0.885184
