19
Iteration:  3756charge 0 multiplicity 1
 O        -0.258937         0.238081        -0.165505
 C        -0.657769         1.457521         0.671175
 C         0.230720         2.703373         0.451130
 C        -0.408010         3.660986         1.575730
 C        -0.801646         2.705978         2.621842
 C        -0.675949         1.267808         2.172663
 C        -1.856272         3.430984         1.832125
 O        -2.725271         2.744362         0.908609
 C        -2.106350         1.662060         0.232321
 H         0.663551         0.289220        -0.508852
 H         1.253163         2.567473         0.864909
 H         0.003152         3.082782        -0.593199
 H         0.220160         4.539993         1.795017
 H        -0.879124         2.909324         3.678005
 H         0.158131         0.716467         2.519527
 H        -1.507921         0.653242         2.522442
 H        -2.425535         4.312765         2.364123
 H        -2.660294         0.813572         0.476620
 H        -2.016962         1.781875        -0.893492
