19
Iteration:   908charge 0 multiplicity 1
 O        -0.138032         0.271227        -0.081203
 C        -0.654716         1.409717         0.603913
 C         0.261009         2.544995         0.787980
 C        -0.269580         3.454474         1.935950
 C        -1.168581         2.461490         2.648320
 C        -1.006894         1.091173         2.060487
 C        -1.848475         3.577635         1.817999
 O        -2.551650         3.071147         0.613775
 C        -1.950950         1.943136        -0.116893
 H         0.637194        -0.093253         0.315944
 H         1.337184         2.380631         0.944719
 H         0.386091         3.155166        -0.168263
 H         0.367603         4.205372         2.438724
 H        -1.258353         2.470515         3.792887
 H        -0.310792         0.493512         2.671861
 H        -2.022223         0.536611         2.243698
 H        -2.465340         4.391206         2.292702
 H        -2.650855         1.157664        -0.037771
 H        -1.562816         2.094977        -1.081625
