19
Iteration:  2660
 O        -0.206311         0.392745        -0.168316
 C        -0.675108         1.427299         0.702983
 C         0.305053         2.588481         0.605381
 C        -0.327639         3.514264         1.639952
 C        -1.054398         2.562951         2.780669
 C        -0.879686         1.151154         2.287003
 C        -1.816533         3.448992         1.784010
 O        -2.566370         2.948209         0.720794
 C        -2.023653         1.828023         0.004656
 H        -0.616101        -0.463498         0.073058
 H         1.253016         2.257587         0.926199
 H         0.191113         2.871777        -0.450378
 H         0.169897         4.457430         1.832682
 H        -0.878479         2.700627         3.812656
 H         0.113745         0.753225         2.633252
 H        -1.666163         0.396353         2.388999
 H        -2.321862         4.333880         2.232527
 H        -2.777986         1.061244        -0.130245
 H        -1.672756         1.987031        -1.019006
