19
Iteration:    30charge 0 multiplicity 1
 O        -0.354233         0.355596        -0.244388
 C        -0.641210         1.373106         0.667207
 C         0.349064         2.585592         0.876335
 C        -0.356268         3.445136         1.792791
 C        -1.108955         2.510285         2.717844
 C        -1.017134         1.090529         2.212162
 C        -1.854676         3.458870         1.776471
 O        -2.486805         3.033976         0.587177
 C        -1.840300         1.930507        -0.031198
 H         0.459926        -0.195685        -0.055380
 H         1.332444         2.188531         1.392906
 H         0.757002         3.080262        -0.000360
 H         0.237967         4.417744         2.149126
 H        -1.287766         2.613338         3.782316
 H        -0.364269         0.412915         2.867172
 H        -2.062507         0.794000         2.236855
 H        -2.405898         4.397610         1.946285
 H        -2.526005         1.091301        -0.237007
 H        -1.291043         2.298910        -0.919833
