19
Iteration:  1066charge 0 multiplicity 1
 O        -0.267286         0.298275        -0.193963
 C        -0.635116         1.491001         0.652619
 C         0.379837         2.620606         0.826172
 C        -0.304331         3.492113         1.900562
 C        -1.231387         2.510359         2.779811
 C        -0.955707         1.032954         2.139079
 C        -1.757020         3.446520         1.691850
 O        -2.587928         3.025458         0.576344
 C        -1.924683         1.925010        -0.055850
 H         0.536576         0.010410         0.242057
 H         1.365490         2.214537         1.193733
 H         0.617352         3.194773        -0.078153
 H         0.212244         4.375306         2.480271
 H        -1.556990         2.592884         3.758290
 H        -0.148593         0.316995         2.560611
 H        -1.883165         0.534870         2.233397
 H        -2.233107         4.316990         1.979402
 H        -2.451970         1.050709         0.176635
 H        -1.872364         2.052542        -1.090689
