19
Iteration:   343
 O        -0.188608         0.258578        -0.168871
 C        -0.680722         1.402449         0.622162
 C         0.358121         2.580243         0.806129
 C        -0.274671         3.406706         1.841649
 C        -1.195654         2.555456         2.761173
 C        -1.129431         1.077487         2.144013
 C        -1.708564         3.502217         1.746115
 O        -2.566852         2.975535         0.734095
 C        -1.851882         2.022108        -0.143918
 H         0.505551        -0.054340         0.394617
 H         1.302893         2.162834         1.167075
 H         0.343630         3.257836        -0.048491
 H         0.144009         4.411194         2.232249
 H        -1.364400         2.867598         3.747959
 H        -0.485239         0.270450         2.570369
 H        -2.176742         0.712069         1.898702
 H        -2.299078         4.316762         2.063056
 H        -2.577165         1.261747        -0.441631
 H        -1.743236         2.541543        -1.160817
