19
Iteration:  2548charge 0 multiplicity 1
 O        -0.176501         0.317913        -0.095348
 C        -0.664102         1.380851         0.691585
 C         0.311527         2.597258         0.647388
 C        -0.294170         3.448107         1.735746
 C        -1.065506         2.568462         2.693693
 C        -0.783151         1.203323         2.144841
 C        -1.864691         3.461542         1.776571
 O        -2.670272         3.044345         0.642813
 C        -2.001272         1.813073         0.091025
 H        -0.887389        -0.327595        -0.339308
 H         1.336773         2.312270         1.048660
 H         0.307033         2.998409        -0.352534
 H         0.200781         4.375983         2.170289
 H        -1.059611         2.713832         3.845264
 H         0.218227         0.846666         2.553773
 H        -1.589039         0.441010         2.255614
 H        -2.211997         4.425798         2.199016
 H        -2.698745         0.936595         0.323613
 H        -1.963414         1.873017        -1.041418
