19
Iteration:  3782charge 0 multiplicity 1
 O        -0.214801         0.412667        -0.213956
 C        -0.721166         1.432286         0.660714
 C         0.127836         2.588599         0.447384
 C        -0.396186         3.537256         1.504714
 C        -0.945796         2.651018         2.672133
 C        -0.522025         1.254834         2.354038
 C        -1.802860         3.457793         1.800101
 O        -2.738509         2.823211         0.897701
 C        -2.138977         1.663148         0.154580
 H         0.577369        -0.031767         0.156689
 H         1.198835         2.441920         0.805262
 H        -0.163610         2.856082        -0.535667
 H         0.229349         4.396130         1.688394
 H        -0.793320         3.130637         3.672764
 H         0.564920         1.245963         2.465004
 H        -0.890617         0.306139         2.844799
 H        -2.162225         4.292172         2.213295
 H        -2.778452         0.741811         0.379273
 H        -1.988010         1.884591        -0.959549
