19
Iteration:  4890charge 0 multiplicity 1
 O        -0.245443         0.215232        -0.118727
 C        -0.625732         1.419397         0.611380
 C         0.221155         2.764807         0.475336
 C        -0.285615         3.554163         1.627009
 C        -0.943603         2.671588         2.778593
 C        -0.868061         1.247357         2.202011
 C        -1.774749         3.481216         1.757532
 O        -2.666094         2.730877         0.929304
 C        -2.059716         1.798040         0.007728
 H         0.097625        -0.403268         0.564945
 H         1.286426         2.450097         0.379828
 H         0.076844         3.453365        -0.450550
 H         0.318646         4.438690         1.875414
 H        -0.833784         2.937507         3.787257
 H         0.069193         0.790588         2.667073
 H        -1.615881         0.579966         2.358211
 H        -2.296349         4.309119         2.180228
 H        -2.727811         0.896589        -0.075571
 H        -1.992718         2.220520        -0.972161
