19
Iteration:   363
 O        -0.335210         0.337783        -0.199642
 C        -0.592663         1.388476         0.671136
 C         0.385266         2.570806         0.788672
 C        -0.296652         3.399340         1.911358
 C        -1.178734         2.501345         2.718831
 C        -1.130725         1.170227         2.140230
 C        -1.857217         3.557890         1.812463
 O        -2.504971         2.969206         0.612638
 C        -1.776554         1.924183        -0.062844
 H         0.478163        -0.147543        -0.071737
 H         1.352378         2.087559         1.106928
 H         0.521421         2.930617        -0.157095
 H         0.157533         4.407807         2.408024
 H        -1.306074         2.608866         3.744820
 H        -0.183159         0.815025         2.650833
 H        -1.939557         0.551528         2.106005
 H        -2.380150         4.385016         2.163120
 H        -2.541898         1.149127        -0.354987
 H        -1.586945         2.212804        -1.169747
