19
Iteration:  1044
 O        -0.250693         0.287324        -0.089422
 C        -0.597462         1.463826         0.651250
 C         0.380948         2.604352         0.747535
 C        -0.350972         3.398343         1.883337
 C        -1.236078         2.474473         2.640656
 C        -1.034617         1.169811         2.035366
 C        -1.842788         3.477242         1.798318
 O        -2.472973         3.021961         0.626525
 C        -1.950180         1.905674        -0.019447
 H         0.670518         0.009798         0.176184
 H         1.406990         2.366108         1.109621
 H         0.567417         3.285790        -0.063658
 H         0.227527         4.236919         2.422663
 H        -1.132147         2.421365         3.656938
 H        -0.214929         0.761033         2.717661
 H        -1.838966         0.513277         2.184323
 H        -2.473270         4.211316         2.182045
 H        -2.623690         1.089495        -0.091305
 H        -1.676194         2.290284        -0.944675
