19
Iteration:  3290charge 0 multiplicity 1
 O        -0.234254         0.261954        -0.052258
 C        -0.690992         1.403414         0.663342
 C         0.236400         2.570880         0.634796
 C        -0.294257         3.602218         1.664047
 C        -0.988188         2.622680         2.656355
 C        -0.649443         1.179254         2.185871
 C        -1.897736         3.369850         1.782259
 O        -2.726815         2.853939         0.836124
 C        -1.977776         1.911070         0.009803
 H        -0.426650         0.353068        -1.013672
 H         1.339054         2.174104         0.634170
 H         0.071436         2.984942        -0.442328
 H         0.264296         4.521555         2.075096
 H        -1.096894         2.807961         3.783377
 H         0.387288         0.961902         2.437154
 H        -1.389565         0.493829         2.605257
 H        -2.372452         4.295936         2.186590
 H        -2.871934         1.294654        -0.224627
 H        -1.621865         2.393357        -0.933473
