19
Iteration:  4590charge 0 multiplicity 1
 O        -0.310298         0.154200        -0.061901
 C        -0.647643         1.412265         0.645105
 C         0.248179         2.704827         0.487387
 C        -0.361046         3.469742         1.643140
 C        -1.041045         2.617333         2.726086
 C        -0.702047         1.167501         2.196340
 C        -1.853509         3.484201         1.767254
 O        -2.658480         2.896268         0.802075
 C        -2.005747         1.923106         0.091178
 H         0.647788         0.025692         0.162069
 H         1.335342         2.509202         0.625337
 H         0.150662         3.231303        -0.501163
 H         0.200481         4.381876         2.055644
 H        -0.675428         2.808145         3.697759
 H         0.321514         0.902435         2.670866
 H        -1.404513         0.402987         2.310762
 H        -2.504955         4.264496         2.298783
 H        -2.676766         1.055847        -0.190029
 H        -1.787092         2.312582        -0.852520
