19
Iteration:  2581
 O        -0.147978         0.367083        -0.230369
 C        -0.738263         1.319125         0.678403
 C         0.264084         2.577567         0.719239
 C        -0.265969         3.565753         1.660966
 C        -0.956034         2.668437         2.676303
 C        -0.967546         1.184691         2.320678
 C        -1.759253         3.485109         1.746331
 O        -2.692765         2.786798         0.832670
 C        -1.945482         1.891679        -0.045543
 H        -0.701727        -0.384951        -0.537538
 H         1.338065         2.422915         1.000241
 H         0.380943         2.801538        -0.301055
 H         0.245862         4.492364         2.007208
 H        -1.031694         2.958771         3.753671
 H        -0.110434         0.577378         2.773653
 H        -1.908831         0.636316         2.530770
 H        -2.235210         4.366478         2.033996
 H        -2.748955         1.109802        -0.180348
 H        -1.586569         2.304511        -0.996467
