19
Iteration:   348charge 0 multiplicity 1
 O        -0.235520         0.264120        -0.215234
 C        -0.671299         1.406607         0.635781
 C         0.387851         2.584557         0.799997
 C        -0.290124         3.414564         1.856402
 C        -1.238176         2.578133         2.762348
 C        -1.112474         1.120300         2.144863
 C        -1.748236         3.467682         1.752268
 O        -2.517954         2.960400         0.711054
 C        -1.853664         1.996869        -0.129174
 H         0.544122        -0.098351         0.322558
 H         1.393613         2.301686         1.186440
 H         0.333549         3.314868        -0.105272
 H         0.268183         4.187503         2.286434
 H        -1.266938         2.721838         3.915349
 H        -0.515437         0.371625         2.659111
 H        -2.190806         0.686357         2.083597
 H        -2.311092         4.458016         1.973724
 H        -2.575770         1.175096        -0.318223
 H        -1.544538         2.518658        -1.017101
