19
Iteration:  1837
 O        -0.079663         0.409637        -0.118076
 C        -0.723887         1.420795         0.609495
 C         0.247829         2.531065         0.725433
 C        -0.249359         3.344080         1.951424
 C        -1.221542         2.480378         2.694834
 C        -1.133017         1.126077         2.115293
 C        -1.705568         3.515359         1.806035
 O        -2.390055         3.102383         0.534008
 C        -2.047583         1.850709        -0.014633
 H         0.457249        -0.136955         0.508074
 H         1.271608         2.010188         1.060580
 H         0.337966         3.297821        -0.097387
 H         0.208269         4.184213         2.459167
 H        -1.295670         2.700129         3.778160
 H        -0.430635         0.365689         2.552486
 H        -2.026282         0.611695         2.230438
 H        -2.404730         4.456670         2.049073
 H        -2.953183         1.146688         0.041299
 H        -1.875576         2.015352        -1.106457
