19
Iteration:  1603charge 0 multiplicity 1
 O         0.008191         0.240609        -0.055347
 C        -0.649192         1.404057         0.597122
 C         0.233850         2.581442         0.688396
 C        -0.318333         3.371946         1.912684
 C        -1.286258         2.392088         2.670438
 C        -1.058431         1.017086         2.035365
 C        -1.781584         3.578560         1.766661
 O        -2.450706         3.256076         0.566367
 C        -2.089256         1.954299         0.053845
 H         0.784333         0.074731         0.500803
 H         1.329876         2.253547         0.912774
 H         0.362654         3.182069        -0.245579
 H         0.377336         4.096707         2.368912
 H        -1.189646         2.569148         3.810812
 H        -0.319362         0.506497         2.688327
 H        -1.981304         0.418854         2.113473
 H        -2.340685         4.460795         2.208101
 H        -2.656031         1.169589         0.530040
 H        -2.126766         1.793394        -0.974851
