19
Iteration:  1744
 O        -0.300310         0.286056        -0.169010
 C        -0.621123         1.395467         0.682776
 C         0.424707         2.586036         0.850171
 C        -0.295261         3.426498         1.871262
 C        -1.198410         2.512248         2.676131
 C        -1.131387         1.069631         2.113021
 C        -1.804208         3.576476         1.736386
 O        -2.543472         3.026476         0.620916
 C        -1.826153         1.962890        -0.050738
 H         0.611575         0.004387         0.015856
 H         1.333913         2.244548         1.184999
 H         0.443956         2.972634        -0.159948
 H         0.322466         4.126288         2.493105
 H        -1.075452         2.660686         3.760269
 H        -0.442526         0.465844         2.653493
 H        -2.098599         0.453555         2.090759
 H        -2.353355         4.309817         2.252159
 H        -2.454694         1.052689        -0.258015
 H        -1.604107         2.420061        -1.022547
