19
Iteration:  3502charge 0 multiplicity 1
 O        -0.115095         0.302969         0.006040
 C        -0.627379         1.443899         0.551718
 C         0.220065         2.728508         0.496156
 C        -0.285358         3.576897         1.586697
 C        -0.877154         2.667479         2.710174
 C        -0.811063         1.245828         2.102237
 C        -1.803987         3.432068         1.809431
 O        -2.784188         2.693766         0.980828
 C        -2.088637         1.815519         0.044337
 H        -0.873708        -0.332634        -0.068880
 H         1.279001         2.419844         0.538898
 H        -0.080105         3.158462        -0.512453
 H         0.352120         4.494777         1.665811
 H        -0.808034         2.628346         3.884885
 H         0.079922         0.822861         2.368844
 H        -1.494955         0.519906         2.342016
 H        -2.246641         4.396854         2.202735
 H        -2.667001         0.942241        -0.010328
 H        -2.101328         2.133146        -1.002471
