19
Iteration:  4908charge 0 multiplicity 1
 O        -0.205822         0.277453         0.008794
 C        -0.728291         1.422897         0.619270
 C         0.249628         2.617587         0.493411
 C        -0.355779         3.567770         1.603142
 C        -0.870897         2.581291         2.630867
 C        -0.683625         1.210037         2.073146
 C        -1.885170         3.435579         1.823710
 O        -2.726956         2.875154         0.848310
 C        -2.067751         1.875019         0.084830
 H         0.161091        -0.259687         0.735014
 H         1.286254         2.412257         0.857581
 H         0.309033         2.992506        -0.514866
 H        -0.017610         4.580333         1.786507
 H        -0.732084         2.682098         3.754001
 H         0.241108         0.695779         2.543314
 H        -1.536500         0.566174         2.529111
 H        -2.283004         4.286103         2.389219
 H        -2.724575         0.925891         0.040456
 H        -1.918062         2.211582        -0.980692
