19
Iteration:  3955
 O        -0.046072         0.312481        -0.041620
 C        -0.686525         1.310228         0.643200
 C         0.115249         2.668420         0.429558
 C        -0.413899         3.530348         1.474409
 C        -0.869312         2.631617         2.636525
 C        -0.612407         1.171786         2.213598
 C        -1.820207         3.500875         1.855712
 O        -2.766007         2.826514         0.968732
 C        -2.210430         1.866408         0.061853
 H         0.210020        -0.397882         0.534780
 H         1.179606         2.658554         0.407254
 H        -0.026000         2.977710        -0.620828
 H         0.089353         4.451126         1.841480
 H        -0.434385         2.846344         3.602630
 H         0.465734         1.005710         2.388089
 H        -1.392339         0.502162         2.650858
 H        -2.255273         4.334473         2.233480
 H        -2.928490         0.997726         0.113275
 H        -2.183781         2.296589        -0.961486
