19
Iteration:   768charge 0 multiplicity 1
 O        -0.085484         0.320875        -0.128558
 C        -0.623074         1.382683         0.641958
 C         0.313703         2.507640         0.736542
 C        -0.306241         3.373923         1.878137
 C        -1.208136         2.536799         2.719161
 C        -1.110958         1.124150         2.108425
 C        -1.828343         3.451270         1.782359
 O        -2.538276         3.076619         0.678730
 C        -1.915569         2.008769        -0.098349
 H         0.646870        -0.103983         0.295094
 H         1.320188         2.149531         0.893244
 H         0.384830         2.888589        -0.282004
 H         0.109397         4.334398         2.280046
 H        -1.336930         2.547174         3.809924
 H        -0.377231         0.488720         2.605815
 H        -2.048722         0.624635         2.179607
 H        -2.326308         4.372262         2.160942
 H        -2.754536         1.314936        -0.029551
 H        -1.724510         2.461667        -1.142773
