19
Iteration:  3484charge 0 multiplicity 1
 O        -0.106974         0.255196        -0.030979
 C        -0.689377         1.509652         0.529988
 C         0.251490         2.781214         0.411629
 C        -0.317537         3.588488         1.637112
 C        -0.876968         2.618725         2.628063
 C        -0.881844         1.240201         2.076457
 C        -1.808231         3.494926         1.817543
 O        -2.670451         2.681122         1.033847
 C        -2.093945         1.760631         0.083668
 H        -0.383784        -0.509414         0.538082
 H         1.267819         2.534552         0.659751
 H         0.142209         3.231216        -0.563673
 H         0.107683         4.549492         2.012595
 H        -0.689910         2.843552         3.675174
 H        -0.180458         0.437359         2.550636
 H        -1.983098         0.838182         2.230666
 H        -2.388707         4.244017         2.264930
 H        -2.676085         0.744611         0.092751
 H        -2.007916         2.232623        -0.920093
