19
Iteration:  2683
 O        -0.154630         0.370205        -0.221880
 C        -0.644671         1.403071         0.637676
 C         0.328172         2.599137         0.765842
 C        -0.256860         3.512626         1.761276
 C        -1.045742         2.597619         2.598306
 C        -0.838134         1.147704         2.173964
 C        -1.813203         3.541034         1.678127
 O        -2.619701         2.986039         0.658416
 C        -2.120394         1.731041         0.253146
 H        -0.878663        -0.241899        -0.378655
 H         1.199805         2.157025         1.126427
 H         0.314275         3.105615        -0.249155
 H         0.336685         4.320111         2.238166
 H        -1.255865         2.483401         3.664167
 H         0.104758         0.708477         2.571361
 H        -1.723953         0.540767         2.419198
 H        -2.305943         4.502495         2.152307
 H        -2.677435         0.901722         0.680974
 H        -2.259843         1.503328        -0.843519
