19
Iteration:  3480charge 0 multiplicity 1
 O        -0.109453         0.268678        -0.050632
 C        -0.662160         1.491865         0.501877
 C         0.261385         2.776060         0.418915
 C        -0.343301         3.586949         1.625063
 C        -0.870016         2.629739         2.641748
 C        -0.905728         1.240239         2.119958
 C        -1.844041         3.462040         1.794342
 O        -2.642506         2.708974         1.037838
 C        -2.102278         1.760404         0.097658
 H        -0.242321        -0.428734         0.593667
 H         1.287236         2.430900         0.636710
 H         0.062782         3.106810        -0.638462
 H         0.188528         4.503667         1.972472
 H        -0.599285         2.806587         3.770283
 H        -0.305139         0.528920         2.520112
 H        -1.843193         0.837375         2.266169
 H        -2.470791         4.217723         2.385550
 H        -2.694472         0.893489        -0.010172
 H        -1.987268         2.147924        -0.886857
