19
Iteration:  3989
 O        -0.224410         0.370652        -0.157304
 C        -0.655027         1.421921         0.622890
 C         0.238140         2.719665         0.469174
 C        -0.353751         3.583143         1.544667
 C        -0.878077         2.695927         2.678975
 C        -0.716703         1.288085         2.105302
 C        -1.817688         3.474311         1.785699
 O        -2.655541         2.696550         0.949048
 C        -2.112476         1.647178         0.224010
 H        -0.442315        -0.420402         0.352554
 H         1.236889         2.525742         0.769509
 H         0.119177         3.155210        -0.515896
 H         0.038835         4.616828         1.797036
 H        -0.655196         2.944955         3.689827
 H        -0.012627         0.717875         2.676358
 H        -1.616426         0.645739         2.381315
 H        -2.266970         4.396194         2.083558
 H        -2.594361         0.718649         0.579308
 H        -2.411664         1.717373        -0.855938
