19
Iteration:  4821charge 0 multiplicity 1
 O        -0.240050         0.190735         0.016134
 C        -0.699777         1.408270         0.585839
 C         0.191323         2.595336         0.575816
 C        -0.302666         3.528463         1.620797
 C        -0.997672         2.612210         2.668112
 C        -0.634247         1.243386         2.146598
 C        -1.825792         3.500934         1.789215
 O        -2.736165         2.888036         0.823831
 C        -2.077524         1.851718         0.096095
 H         0.449541         0.508503        -0.593123
 H         1.313137         2.418719         0.735520
 H         0.198890         3.140879        -0.424146
 H         0.290875         4.419912         1.794386
 H        -0.772094         2.825813         3.767370
 H         0.491447         1.045064         2.358849
 H        -1.194977         0.365526         2.449352
 H        -2.531858         4.114116         2.405402
 H        -2.778499         0.927392         0.025182
 H        -1.938052         2.140004        -0.943305
