19
Iteration:  1670charge 0 multiplicity 1
 O        -0.319170         0.235355        -0.127776
 C        -0.580328         1.436573         0.639824
 C         0.427868         2.563590         0.773480
 C        -0.342907         3.419576         1.792031
 C        -1.274918         2.472669         2.731761
 C        -1.003024         1.121694         2.165024
 C        -1.877127         3.474379         1.801674
 O        -2.552109         3.066889         0.634333
 C        -1.792883         2.068879        -0.108252
 H         0.444838        -0.287611         0.234020
 H         1.349849         2.096786         1.315271
 H         0.592509         3.099192        -0.201064
 H         0.190786         4.285287         2.271312
 H        -1.229286         2.554740         3.826621
 H        -0.175208         0.593649         2.676491
 H        -1.802324         0.430997         2.043232
 H        -2.362432         4.232782         2.306483
 H        -2.491970         1.201569        -0.195173
 H        -1.498609         2.331419        -1.139949
