19
Iteration:   690
 O        -0.219267         0.370741        -0.154699
 C        -0.646162         1.381512         0.725513
 C         0.207330         2.611207         0.779124
 C        -0.310994         3.417444         1.900025
 C        -1.204089         2.456664         2.666538
 C        -1.004034         1.002417         2.133753
 C        -1.821524         3.559602         1.727445
 O        -2.368035         3.113344         0.523863
 C        -1.944491         1.885971         0.026506
 H         0.452882        -0.121793         0.356085
 H         1.243412         2.500502         0.812533
 H        -0.010496         3.134604        -0.173260
 H         0.468900         4.008018         2.549627
 H        -1.330041         2.537864         3.735171
 H        -0.215427         0.482413         2.647588
 H        -1.949765         0.446764         2.184486
 H        -2.326319         4.234317         2.341670
 H        -2.860658         1.308376        -0.018977
 H        -1.617822         2.011474        -1.063434
