19
Iteration:   178charge 0 multiplicity 1
 O        -0.232516         0.281397        -0.139219
 C        -0.669690         1.366749         0.680301
 C         0.253933         2.716289         0.760410
 C        -0.342227         3.459919         1.943725
 C        -1.162594         2.446777         2.755562
 C        -1.023063         1.055726         2.140391
 C        -1.804533         3.501799         1.753913
 O        -2.391078         3.195607         0.501139
 C        -1.961407         1.791892        -0.034420
 H         0.464132        -0.239227         0.273657
 H         1.297974         2.267930         0.984315
 H         0.070213         3.308936        -0.250359
 H         0.340882         4.182114         2.518955
 H        -0.979624         2.533792         3.844672
 H        -0.248342         0.384167         2.579620
 H        -1.966537         0.450664         1.984809
 H        -2.377436         4.324741         2.272352
 H        -2.761494         1.125030        -0.190846
 H        -1.580413         2.026849        -1.018986
