19
Iteration:  3627charge 0 multiplicity 1
 O        -0.208864         0.297889        -0.077364
 C        -0.695040         1.396375         0.675389
 C         0.085589         2.645648         0.404861
 C        -0.396453         3.579913         1.616939
 C        -0.904936         2.611953         2.726927
 C        -0.621009         1.205827         2.175906
 C        -1.872545         3.412643         1.877903
 O        -2.614509         2.936360         0.754540
 C        -2.121095         1.707604         0.218600
 H         0.664331         0.492307        -0.455207
 H         1.201222         2.386198         0.498188
 H        -0.030454         3.042105        -0.629220
 H         0.169743         4.486313         1.739221
 H        -0.819141         2.690469         3.771102
 H         0.437582         0.992154         2.344327
 H        -1.389826         0.426869         2.491222
 H        -2.296828         4.387638         2.315538
 H        -2.699305         0.734099         0.349260
 H        -2.000434         1.948945        -0.815581
