19
Iteration:  1394
 O        -0.227156         0.319153        -0.239037
 C        -0.632754         1.379565         0.691443
 C         0.350327         2.640006         0.739401
 C        -0.311002         3.467073         1.930548
 C        -1.228817         2.512987         2.720731
 C        -1.044299         1.054892         2.128804
 C        -1.855669         3.460733         1.809702
 O        -2.428300         3.103613         0.554233
 C        -1.910671         1.852604         0.045621
 H         0.414083        -0.232385         0.197772
 H         1.405218         2.422622         0.869683
 H         0.403256         3.058934        -0.263123
 H         0.203885         4.329093         2.323516
 H        -1.414909         2.631070         3.704236
 H        -0.257326         0.548083         2.762651
 H        -2.086718         0.674873         2.226321
 H        -2.317673         4.398411         2.017112
 H        -2.636728         0.991864         0.180430
 H        -1.861892         2.061250        -1.069593
