19
Iteration:  3805charge 0 multiplicity 1
 O        -0.183871         0.300116        -0.121016
 C        -0.681801         1.399520         0.613901
 C         0.136868         2.736225         0.414818
 C        -0.335707         3.626292         1.616446
 C        -0.882918         2.668313         2.633991
 C        -0.560525         1.230367         2.142734
 C        -1.861673         3.436117         1.802235
 O        -2.721487         2.846450         0.859964
 C        -2.151724         1.641909         0.294582
 H         0.142716        -0.440097         0.399433
 H         1.237520         2.579428         0.527084
 H        -0.244140         3.096065        -0.492595
 H         0.020223         4.649036         1.738081
 H        -0.765364         2.861393         3.699532
 H         0.419796         0.897224         2.513537
 H        -1.293389         0.453277         2.418070
 H        -2.383498         4.230430         2.242412
 H        -2.806616         0.710650         0.498613
 H        -2.029316         1.811174        -0.796971
