19
Iteration:   938charge 0 multiplicity 1
 O        -0.236150         0.349227        -0.148414
 C        -0.676675         1.417648         0.724828
 C         0.347713         2.495666         0.755951
 C        -0.334543         3.525032         1.817877
 C        -1.283153         2.397388         2.768648
 C        -0.920155         1.131684         2.186739
 C        -1.802706         3.371144         1.825427
 O        -2.506732         3.097568         0.564540
 C        -1.924575         1.996176        -0.131157
 H         0.559845        -0.076916         0.265208
 H         1.370763         2.211888         1.093541
 H         0.396359         2.988694        -0.249562
 H         0.143026         4.573425         2.075549
 H        -1.453535         2.498026         3.831380
 H        -0.028652         0.708185         2.665141
 H        -1.853059         0.470951         2.343075
 H        -2.240862         4.197960         2.166719
 H        -2.739927         1.199054        -0.283135
 H        -1.377269         2.125819        -1.155640
