19
Iteration:  3712
 O        -0.005851         0.277940         0.055115
 C        -0.677422         1.376453         0.612442
 C         0.058831         2.670866         0.397227
 C        -0.310809         3.555334         1.565864
 C        -0.833786         2.663872         2.670503
 C        -0.704831         1.263764         2.145740
 C        -1.825162         3.422042         1.834624
 O        -2.793392         2.773006         0.981933
 C        -2.104794         1.816693         0.023176
 H        -0.522317        -0.059577        -0.714098
 H         1.096134         2.345151         0.440114
 H        -0.301187         3.185994        -0.517249
 H         0.283028         4.467376         1.791228
 H        -0.718432         2.911044         3.697159
 H         0.235548         0.846266         2.422198
 H        -1.442557         0.605455         2.583044
 H        -2.366935         4.227137         2.476343
 H        -2.748247         1.001040        -0.058072
 H        -2.180663         2.475655        -0.898319
