19
Iteration:  4614charge 0 multiplicity 1
 O        -0.366860         0.284204        -0.099810
 C        -0.680823         1.424168         0.639740
 C         0.282762         2.664410         0.553122
 C        -0.282287         3.655841         1.672314
 C        -0.931456         2.661648         2.758874
 C        -0.868347         1.196670         2.210659
 C        -1.778692         3.456826         1.782598
 O        -2.606422         2.760280         0.819600
 C        -1.989996         1.760446         0.011079
 H         0.535084         0.290008        -0.470875
 H         1.281589         2.376636         0.668486
 H         0.185896         3.091834        -0.483157
 H         0.073252         4.675339         1.892367
 H        -1.057984         2.633577         3.819186
 H         0.001823         0.590981         2.694240
 H        -1.812138         0.797126         2.484781
 H        -2.456748         4.129332         2.229874
 H        -2.575007         0.851251        -0.065335
 H        -1.855894         2.064483        -1.025227
