19
Iteration:   506charge 0 multiplicity 1
 O        -0.253400         0.287590        -0.130095
 C        -0.612472         1.400835         0.644899
 C         0.450008         2.544162         0.841331
 C        -0.312583         3.360426         1.899404
 C        -1.210376         2.533721         2.660744
 C        -1.012599         1.093804         2.125205
 C        -1.854961         3.441944         1.729728
 O        -2.581704         3.149950         0.602425
 C        -1.927124         1.967584        -0.060586
 H         0.570369        -0.125989         0.260875
 H         1.491595         2.109373         1.129343
 H         0.500870         3.227741        -0.018243
 H         0.114631         4.366906         2.289708
 H        -1.288432         2.465186         3.780288
 H        -0.119371         0.589745         2.609199
 H        -1.915988         0.601235         2.142133
 H        -2.267377         4.386567         2.280751
 H        -2.540643         1.009994        -0.208039
 H        -1.663331         2.321046        -1.123890
