19
Iteration:  2505
 O        -0.109353         0.263297        -0.069065
 C        -0.695878         1.409206         0.592243
 C         0.093228         2.657914         0.579726
 C        -0.342153         3.425305         1.797485
 C        -1.043243         2.510341         2.713777
 C        -0.939270         1.151940         2.130287
 C        -1.840093         3.483824         1.858460
 O        -2.389158         3.152442         0.582100
 C        -2.049410         1.759291         0.104935
 H         0.180360        -0.393852         0.592029
 H         1.183585         2.456533         0.378507
 H        -0.201087         3.221149        -0.326390
 H         0.368294         4.244737         2.154856
 H        -1.015344         2.674107         3.868815
 H         0.115296         0.830040         2.408318
 H        -1.729428         0.467865         2.480865
 H        -2.498631         4.240671         2.341011
 H        -2.841706         1.089657         0.397724
 H        -2.009604         1.807411        -1.039333
