19
Iteration:  2282
 O        -0.062816         0.252960        -0.088446
 C        -0.710958         1.406409         0.580530
 C         0.355242         2.660403         0.696403
 C        -0.265122         3.461945         1.825532
 C        -1.218878         2.458069         2.650072
 C        -1.021225         1.067913         2.086049
 C        -1.762324         3.523677         1.766906
 O        -2.488896         3.178104         0.604616
 C        -2.111832         1.842925         0.097903
 H         0.183819        -0.334821         0.651331
 H         1.367676         2.218762         0.778123
 H         0.297584         3.260633        -0.192955
 H         0.330015         4.280219         2.396554
 H        -1.300793         2.580774         3.770409
 H        -0.218918         0.458082         2.553343
 H        -1.855537         0.297914         2.271803
 H        -2.257009         4.388217         2.283271
 H        -2.835442         1.188474         0.571799
 H        -2.288995         1.776550        -1.001010
