19
Iteration:  4658charge 0 multiplicity 1
 O        -0.082353         0.251440        -0.060499
 C        -0.700998         1.406237         0.683509
 C         0.280139         2.550834         0.473255
 C        -0.278711         3.508873         1.549276
 C        -1.113711         2.590720         2.686073
 C        -0.814209         1.150063         2.134533
 C        -1.818790         3.506539         1.802356
 O        -2.727425         2.927718         0.911846
 C        -2.098976         1.891196         0.142551
 H         0.842488         0.542808        -0.186839
 H         1.318790         2.302736         0.725814
 H         0.314400         2.838285        -0.625891
 H         0.277594         4.411521         1.745311
 H        -1.044229         2.993310         3.704675
 H         0.205646         0.779562         2.541013
 H        -1.513384         0.392356         2.162882
 H        -2.328118         4.328320         2.194509
 H        -2.891675         1.145904         0.124923
 H        -1.924890         2.196534        -0.861456
