19
Iteration:  1411charge 0 multiplicity 1
 O        -0.266866         0.391219        -0.275797
 C        -0.647514         1.392574         0.704365
 C         0.328805         2.492631         0.817714
 C        -0.330957         3.448576         1.835793
 C        -1.225550         2.520344         2.789900
 C        -0.930197         1.097691         2.237542
 C        -1.817112         3.483263         1.722972
 O        -2.474979         3.071380         0.552038
 C        -1.945786         1.891073        -0.076209
 H         0.464050        -0.074708         0.109472
 H         1.267324         2.073907         1.295758
 H         0.582661         3.167025        -0.060393
 H         0.138207         4.383996         2.354049
 H        -1.430384         2.676334         3.957815
 H        -0.042349         0.730096         2.757402
 H        -1.794435         0.387585         2.409400
 H        -2.438655         4.155420         2.336154
 H        -2.746235         1.145967        -0.113425
 H        -1.547166         2.102890        -1.071690
