19
Iteration:  1742
 O        -0.295463         0.288150        -0.177753
 C        -0.612647         1.404057         0.705629
 C         0.419757         2.578532         0.836185
 C        -0.295897         3.442268         1.870928
 C        -1.204892         2.499436         2.675480
 C        -1.159974         1.076544         2.099084
 C        -1.782680         3.565965         1.730592
 O        -2.537283         3.019131         0.636109
 C        -1.812598         1.952044        -0.046913
 H         0.637179         0.016399         0.044865
 H         1.385393         2.247752         1.188013
 H         0.372510         2.987556        -0.160990
 H         0.307435         4.180885         2.424571
 H        -1.019071         2.672065         3.762105
 H        -0.471335         0.444661         2.722476
 H        -2.168817         0.486244         2.058751
 H        -2.433672         4.338608         2.277359
 H        -2.497758         1.092226        -0.254327
 H        -1.638488         2.451408        -1.059460
