19
Iteration:  2936charge 0 multiplicity 1
 O        -0.261733         0.298748        -0.137110
 C        -0.651616         1.391407         0.627749
 C         0.233344         2.685760         0.675721
 C        -0.326182         3.522958         1.800100
 C        -1.168271         2.455489         2.682749
 C        -0.655383         1.096234         2.129456
 C        -1.825932         3.504057         1.728268
 O        -2.418648         3.124892         0.523371
 C        -2.205332         1.681750         0.318034
 H         0.114424         0.737497        -0.932313
 H         1.235884         2.367789         0.991135
 H         0.324035         3.209141        -0.332046
 H         0.369349         4.308596         2.193135
 H        -1.492471         2.681876         3.704335
 H         0.344955         0.823367         2.531069
 H        -1.405739         0.239138         2.249002
 H        -2.309474         4.328816         2.154935
 H        -2.799671         1.191136         1.169544
 H        -2.533770         1.342505        -0.666485
