19
Iteration:  4035charge 0 multiplicity 1
 O        -0.054430         0.294699        -0.024169
 C        -0.704331         1.384643         0.667795
 C         0.137021         2.649922         0.430278
 C        -0.460302         3.562881         1.436721
 C        -0.824482         2.602211         2.697080
 C        -0.611202         1.211279         2.187311
 C        -1.869102         3.460864         1.819549
 O        -2.731620         2.902301         0.893030
 C        -2.119527         1.750809         0.189475
 H        -0.838022        -0.073585        -0.428982
 H         1.193244         2.457571         0.703051
 H         0.043129         3.043694        -0.543939
 H         0.045251         4.511738         1.574769
 H        -0.598266         2.898250         3.726270
 H         0.384823         0.888508         2.259278
 H        -1.119130         0.315267         2.689944
 H        -2.402702         4.274322         2.461304
 H        -2.845594         0.970899         0.198791
 H        -2.094889         2.145206        -0.877057
