19
Iteration:  3667
 O        -0.284383         0.319672        -0.235400
 C        -0.622506         1.485759         0.621308
 C         0.357296         2.736164         0.515654
 C        -0.270299         3.572774         1.565506
 C        -0.935496         2.664588         2.659839
 C        -0.697388         1.262067         2.140724
 C        -1.894143         3.465560         1.856153
 O        -2.766398         2.744645         0.879928
 C        -2.073863         1.647413         0.258294
 H         0.017806        -0.364637         0.406960
 H         1.330090         2.409192         0.832096
 H         0.231485         3.166422        -0.493134
 H         0.010669         4.597820         1.806005
 H        -0.856372         2.847178         3.726225
 H         0.167857         0.861895         2.647827
 H        -1.534087         0.648557         2.348537
 H        -2.455431         4.328560         2.224883
 H        -2.614844         0.786505         0.493589
 H        -2.086969         1.733663        -0.923998
