19
Iteration:   911charge 0 multiplicity 1
 O        -0.140386         0.292680        -0.081929
 C        -0.651725         1.382797         0.591250
 C         0.253820         2.534202         0.762750
 C        -0.294632         3.435396         1.942443
 C        -1.174614         2.456675         2.656935
 C        -1.008337         1.071399         2.099577
 C        -1.845642         3.569554         1.804548
 O        -2.549288         3.077934         0.606856
 C        -1.938795         1.969263        -0.107213
 H         0.644031        -0.045272         0.410056
 H         1.316236         2.367956         0.975975
 H         0.395309         3.172867        -0.097641
 H         0.399081         4.125417         2.312327
 H        -1.207165         2.593516         3.774610
 H        -0.183808         0.531516         2.654426
 H        -1.883175         0.514733         2.306809
 H        -2.507226         4.473743         2.281595
 H        -2.699106         1.179798        -0.104542
 H        -1.557613         2.184575        -1.128735
