19
Iteration:   917charge 0 multiplicity 1
 O        -0.136967         0.315506        -0.096539
 C        -0.677500         1.349876         0.610494
 C         0.269447         2.564083         0.731650
 C        -0.353218         3.376019         1.899380
 C        -1.192869         2.470396         2.706816
 C        -0.994453         1.048392         2.172296
 C        -1.838577         3.534072         1.777510
 O        -2.528712         3.099065         0.598726
 C        -1.910997         1.997649        -0.088832
 H         0.564885         0.074448         0.495828
 H         1.261361         2.186325         1.101360
 H         0.338061         3.230093        -0.178198
 H         0.443859         4.119196         2.224847
 H        -1.194302         2.767436         3.757258
 H        -0.019417         0.682817         2.526466
 H        -1.848956         0.277070         2.358466
 H        -2.344930         4.335821         2.148941
 H        -2.731312         1.262373        -0.288474
 H        -1.677877         2.404504        -1.103996
