19
Iteration:  3926charge 0 multiplicity 1
 O        -0.225604         0.275560        -0.062007
 C        -0.649865         1.417994         0.600339
 C         0.155320         2.766721         0.416932
 C        -0.316389         3.617665         1.561164
 C        -0.865366         2.679408         2.673568
 C        -0.681032         1.285569         2.149345
 C        -1.791271         3.422560         1.871216
 O        -2.730525         2.723716         0.914959
 C        -2.098342         1.725242         0.118569
 H        -0.297476        -0.579953         0.420512
 H         1.327415         2.646206         0.423024
 H        -0.125082         3.161382        -0.568465
 H         0.129249         4.609598         1.837693
 H        -0.720661         2.760370         3.730704
 H         0.322024         0.934149         2.330126
 H        -1.502819         0.623289         2.585361
 H        -2.454731         4.194672         2.437029
 H        -2.549729         0.779694         0.270980
 H        -2.103187         1.954956        -1.009192
