19
Iteration:  2979
 O        -0.180604         0.256592         0.029617
 C        -0.688888         1.409687         0.635251
 C         0.121282         2.706378         0.556670
 C        -0.314574         3.499181         1.715171
 C        -1.033126         2.546793         2.685740
 C        -0.845393         1.084289         2.142302
 C        -1.761518         3.471410         1.891166
 O        -2.523129         2.989652         0.667838
 C        -2.035694         1.847576         0.058439
 H        -0.235714         0.235026        -0.955425
 H         1.213749         2.560587         0.576923
 H        -0.091526         3.217288        -0.394512
 H         0.319701         4.370254         2.058874
 H        -1.031419         2.598012         3.788287
 H         0.061045         0.606556         2.532944
 H        -1.738183         0.407603         2.291558
 H        -2.285650         4.266019         2.353881
 H        -2.698969         0.951847         0.142408
 H        -1.788908         2.119741        -0.967563
