19
Iteration:  3418charge 0 multiplicity 1
 O        -0.300532         0.224515        -0.083943
 C        -0.616113         1.478552         0.615222
 C         0.300833         2.700721         0.547538
 C        -0.352162         3.548171         1.661153
 C        -1.012390         2.587353         2.728830
 C        -0.647798         1.262991         2.132807
 C        -1.883994         3.429684         1.773521
 O        -2.708708         2.915503         0.810440
 C        -2.010788         1.650449         0.149487
 H        -0.016010         0.596128        -0.937144
 H         1.274090         2.241419         0.775550
 H         0.393610         3.154525        -0.434163
 H         0.050304         4.586131         1.908849
 H        -0.922993         2.759633         3.866351
 H         0.471652         0.929375         2.426125
 H        -1.457999         0.449847         2.424337
 H        -2.302353         4.340559         2.252973
 H        -2.740019         0.863875         0.496774
 H        -2.174575         1.994107        -0.905489
