19
Iteration:  2348charge 0 multiplicity 1
 O        -0.241339         0.259524        -0.099495
 C        -0.636221         1.421814         0.660321
 C         0.429045         2.508767         0.755959
 C        -0.304196         3.426496         1.740998
 C        -1.132348         2.571614         2.769520
 C        -0.925892         1.163890         2.139554
 C        -1.876533         3.459022         1.761976
 O        -2.607167         3.043495         0.655141
 C        -1.994939         1.927262        -0.004381
 H         0.158866         0.525397        -0.943683
 H         1.409108         2.016872         0.929627
 H         0.551863         3.037264        -0.161770
 H         0.111794         4.376690         2.142320
 H        -1.159034         2.757703         3.827853
 H        -0.100999         0.680402         2.682678
 H        -1.759146         0.432126         2.420958
 H        -2.239245         4.416167         2.121803
 H        -2.537556         0.963262         0.015003
 H        -1.805624         2.255976        -1.015234
