19
Iteration:  1142
 O        -0.254987         0.270385        -0.039594
 C        -0.636530         1.528173         0.554233
 C         0.323170         2.706690         0.737880
 C        -0.237994         3.379989         1.947195
 C        -1.158757         2.514901         2.767703
 C        -1.044098         1.154832         2.026450
 C        -1.846234         3.495962         1.818852
 O        -2.507759         2.963058         0.569173
 C        -1.934189         1.886353        -0.090847
 H         0.522097         0.013578         0.554326
 H         1.338003         2.197447         0.923243
 H         0.547261         3.305642        -0.152983
 H         0.381184         4.250654         2.499496
 H        -1.187998         2.354875         3.835216
 H        -0.217402         0.469747         2.435776
 H        -1.850757         0.476798         1.986416
 H        -2.636290         4.097167         2.154467
 H        -2.594362         1.038558         0.084564
 H        -1.918270         2.121151        -1.142659
