19
Iteration:   553charge 0 multiplicity 1
 O        -0.140030         0.276460        -0.102539
 C        -0.668910         1.396039         0.628618
 C         0.361022         2.558713         0.786059
 C        -0.262456         3.386460         1.878922
 C        -1.103228         2.523659         2.750380
 C        -1.201043         1.129938         2.102675
 C        -1.818504         3.496727         1.788325
 O        -2.592030         2.988423         0.657918
 C        -1.903111         2.061339        -0.123073
 H         0.748447         0.110583         0.283494
 H         1.413113         2.268928         0.971280
 H         0.271474         2.942635        -0.214012
 H         0.305960         4.117086         2.217488
 H        -1.119059         2.594611         3.844464
 H        -0.464002         0.465946         2.480479
 H        -2.229750         0.722316         2.024105
 H        -2.256054         4.407564         2.083082
 H        -2.611222         1.207323        -0.370998
 H        -1.428507         2.348308        -1.152115
