19
Iteration:  4834
 O        -0.186030         0.267556        -0.047128
 C        -0.705486         1.407470         0.669182
 C         0.320019         2.547974         0.564514
 C        -0.325857         3.577313         1.557075
 C        -0.879666         2.673562         2.628323
 C        -0.710381         1.204597         2.147723
 C        -1.924807         3.385580         1.823652
 O        -2.762777         2.896754         0.874289
 C        -2.159263         1.854754         0.052818
 H         0.763872         0.345142        -0.264101
 H         1.254172         2.048562         0.953912
 H         0.429494         2.914538        -0.542195
 H         0.302947         4.394280         1.953187
 H        -0.982879         2.932310         3.715646
 H         0.352016         0.881827         2.445110
 H        -1.330875         0.517786         2.554091
 H        -2.247008         4.379057         2.209073
 H        -2.882598         0.959919         0.146748
 H        -2.100017         2.236074        -0.925799
