19
Iteration:   497charge 0 multiplicity 1
 O        -0.225865         0.256309        -0.140952
 C        -0.611891         1.430650         0.639801
 C         0.448589         2.576449         0.813156
 C        -0.270314         3.402217         1.867884
 C        -1.304754         2.406361         2.696808
 C        -0.945133         1.122535         2.161474
 C        -1.811604         3.446215         1.709045
 O        -2.612021         3.182277         0.597469
 C        -1.961395         1.992837        -0.043119
 H         0.531917        -0.168963         0.345797
 H         1.369645         2.147321         1.222736
 H         0.798500         2.944310        -0.117992
 H         0.176048         4.250939         2.235312
 H        -1.607765         2.620013         3.764652
 H        -0.147630         0.550646         2.669327
 H        -1.792838         0.427732         2.157894
 H        -2.292001         4.307272         2.294506
 H        -2.793958         1.195210        -0.100397
 H        -1.596704         2.246159        -1.130223
