19
Iteration:  1535
 O        -0.302268         0.260927        -0.209342
 C        -0.609174         1.373005         0.664804
 C         0.390779         2.588902         0.879305
 C        -0.303604         3.536836         1.893984
 C        -1.246720         2.457126         2.625009
 C        -0.926605         1.079739         2.154898
 C        -1.861847         3.474925         1.708173
 O        -2.522775         3.068924         0.572584
 C        -1.911286         1.998946         0.005492
 H         0.394213        -0.150576         0.290895
 H         1.434247         2.245183         1.234323
 H         0.745737         2.928021        -0.103063
 H         0.059937         4.381708         2.413155
 H        -1.392221         2.558058         3.670878
 H        -0.022924         0.704338         2.642111
 H        -1.746784         0.269668         2.303653
 H        -2.448049         4.328033         2.306082
 H        -2.642467         1.137229         0.044324
 H        -1.797902         2.269479        -1.012278
