19
Iteration:  3242
 O        -0.054506         0.312713        -0.109496
 C        -0.693128         1.475282         0.624117
 C         0.223071         2.652069         0.547921
 C        -0.221270         3.551093         1.667847
 C        -0.886268         2.628964         2.678026
 C        -1.048605         1.225685         2.080039
 C        -1.789097         3.509091         1.801854
 O        -2.675529         2.722404         0.940358
 C        -2.028488         1.835173         0.031960
 H        -0.457779        -0.531065         0.189513
 H         1.279430         2.570469         0.931625
 H         0.204414         3.148832        -0.415294
 H         0.287027         4.437545         1.765905
 H        -0.977988         2.529976         3.717272
 H        -0.427820         0.551903         2.660394
 H        -2.143751         1.012101         2.079517
 H        -2.401640         4.022146         2.482242
 H        -2.718506         0.999910        -0.047754
 H        -1.861701         2.224082        -1.039190
