19
Iteration:  2173charge 0 multiplicity 1
 O         0.029123         0.337506        -0.014220
 C        -0.749170         1.388580         0.637996
 C         0.269311         2.529131         0.733710
 C        -0.255124         3.376036         1.799152
 C        -1.027227         2.510700         2.743783
 C        -1.240035         1.096621         2.097296
 C        -1.770272         3.562216         1.758649
 O        -2.606845         3.006016         0.709478
 C        -1.907110         2.025360        -0.128645
 H        -0.556800        -0.461486        -0.090752
 H         1.263161         2.016778         0.922609
 H         0.317001         2.896718        -0.271940
 H         0.456172         4.161249         2.171777
 H        -1.039629         2.773792         3.818143
 H        -0.531689         0.579324         2.741042
 H        -2.306581         0.706696         2.032466
 H        -2.238357         4.432090         2.200834
 H        -2.677642         1.257242        -0.352187
 H        -1.511334         2.340008        -1.199734
