19
Iteration:  4722charge 0 multiplicity 1
 O        -0.272469         0.246521        -0.163738
 C        -0.619800         1.404967         0.676997
 C         0.244494         2.712000         0.575279
 C        -0.325000         3.537139         1.678985
 C        -1.010800         2.618619         2.677494
 C        -0.702894         1.081837         2.142299
 C        -1.846265         3.534964         1.771089
 O        -2.647599         2.968453         0.713551
 C        -2.102446         1.764058         0.199978
 H         0.421046        -0.210823         0.366286
 H         1.384477         2.558847         0.720051
 H         0.112100         3.139878        -0.467200
 H         0.134452         4.463523         1.993595
 H        -0.854578         2.803320         3.728171
 H         0.268479         0.685880         2.561190
 H        -1.422378         0.374851         2.402657
 H        -2.393653         4.280052         2.302217
 H        -2.737423         0.876084         0.587206
 H        -2.080463         1.805842        -0.868666
