19
Iteration:  4566charge 0 multiplicity 1
 O        -0.151278         0.253702        -0.043215
 C        -0.694265         1.411876         0.637894
 C         0.212456         2.609808         0.639236
 C        -0.343477         3.566072         1.596323
 C        -0.932384         2.615441         2.623870
 C        -0.746754         1.181541         2.072634
 C        -1.806085         3.401777         1.829959
 O        -2.718157         3.019035         0.815232
 C        -2.123045         1.813614         0.045211
 H         0.285843        -0.265110         0.655484
 H         1.319553         2.302748         0.976756
 H         0.387053         2.971776        -0.380802
 H         0.276676         4.455422         1.795003
 H        -0.988266         2.563931         3.753274
 H         0.310454         0.864516         2.341007
 H        -1.521483         0.405013         2.289127
 H        -2.210976         4.311754         2.465863
 H        -2.798407         0.895138         0.190724
 H        -2.187915         1.992357        -0.987366
