19
Iteration:  4562
 O        -0.135081         0.286303        -0.053268
 C        -0.721930         1.435796         0.617413
 C         0.207259         2.605292         0.658269
 C        -0.328254         3.534251         1.583823
 C        -0.915776         2.625125         2.653441
 C        -0.762040         1.186106         2.062522
 C        -1.803597         3.418094         1.810295
 O        -2.694649         3.002686         0.797326
 C        -2.136898         1.784400         0.092145
 H         0.181698        -0.310177         0.657388
 H         1.223503         2.286207         0.999706
 H         0.386229         3.003959        -0.340413
 H         0.216654         4.403755         1.817100
 H        -0.786624         2.616029         3.743805
 H         0.168527         0.851252         2.418193
 H        -1.589629         0.424347         2.272075
 H        -2.301273         4.135417         2.368010
 H        -2.737429         0.921387         0.266852
 H        -2.189527         2.039248        -1.050461
