19
Iteration:  1695
 O        -0.117708         0.291665         0.007954
 C        -0.744325         1.380290         0.592456
 C         0.360979         2.564043         0.839746
 C        -0.207672         3.387534         1.868532
 C        -1.123992         2.500763         2.640556
 C        -1.136868         1.123997         2.032028
 C        -1.803373         3.510517         1.755116
 O        -2.610691         2.984601         0.718821
 C        -1.953282         2.098545        -0.188333
 H         0.614475        -0.068005         0.524508
 H         1.229103         1.907941         1.208794
 H         0.498862         3.073619        -0.122870
 H         0.191065         4.292434         2.263926
 H        -1.135726         2.326718         3.693474
 H        -0.346485         0.415355         2.551712
 H        -2.067058         0.554862         2.122328
 H        -2.085085         4.520620         2.139245
 H        -2.699149         1.352543        -0.478399
 H        -1.481116         2.475824        -1.217227
