19
Iteration:   282charge 0 multiplicity 1
 O        -0.313179         0.245360        -0.192339
 C        -0.703782         1.355354         0.666015
 C         0.395433         2.636943         0.863091
 C        -0.229007         3.471228         1.911757
 C        -1.194252         2.515382         2.686190
 C        -1.042654         1.142853         2.120784
 C        -1.801338         3.500573         1.742382
 O        -2.563481         2.961054         0.642044
 C        -1.841803         1.982579        -0.101971
 H         0.527345        -0.063134         0.103874
 H         1.433268         2.302803         0.951222
 H         0.317737         3.172542        -0.141281
 H         0.158831         4.231154         2.442578
 H        -1.319209         2.719943         3.818825
 H        -0.352640         0.547067         2.660822
 H        -1.944557         0.528832         2.125054
 H        -2.204532         4.439600         2.272309
 H        -2.535555         1.188759        -0.408449
 H        -1.285935         2.425737        -0.889978
