19
Iteration:  3633charge 0 multiplicity 1
 O        -0.250572         0.270885        -0.098536
 C        -0.687526         1.447120         0.652745
 C         0.103389         2.695834         0.492706
 C        -0.355730         3.558460         1.609997
 C        -0.931365         2.611380         2.694906
 C        -0.617102         1.218538         2.151783
 C        -1.822418         3.449440         1.841259
 O        -2.630783         2.876260         0.774859
 C        -2.121035         1.684450         0.230471
 H         0.689474         0.457016        -0.346287
 H         1.142780         2.422593         0.535017
 H         0.051046         3.118587        -0.525884
 H         0.090866         4.561499         1.737032
 H        -0.958583         2.728581         3.824131
 H         0.431022         0.944969         2.403266
 H        -1.326553         0.505860         2.466745
 H        -2.255583         4.270423         2.295967
 H        -2.662508         0.778072         0.418530
 H        -2.161271         1.927845        -0.916167
