19
Iteration:  2166charge 0 multiplicity 1
 O        -0.029483         0.397056        -0.061669
 C        -0.762251         1.338898         0.694387
 C         0.269879         2.494741         0.719346
 C        -0.262687         3.447528         1.754520
 C        -1.082069         2.508567         2.655364
 C        -1.249851         1.085352         2.125557
 C        -1.758727         3.593803         1.797027
 O        -2.521693         2.956829         0.729750
 C        -1.855924         1.990036        -0.109631
 H        -0.454018        -0.480183         0.042728
 H         1.286273         2.175897         1.039882
 H         0.292638         3.052745        -0.248779
 H         0.432975         4.181931         2.302521
 H        -1.098424         2.606593         3.774061
 H        -0.681020         0.352870         2.732634
 H        -2.249363         0.720965         2.125001
 H        -2.315687         4.548394         2.036460
 H        -2.707103         1.322462        -0.338438
 H        -1.491159         2.410380        -0.998448
