19
Iteration:  3147charge 0 multiplicity 1
 O        -0.090623         0.366075        -0.101288
 C        -0.698008         1.344132         0.714207
 C         0.147845         2.724956         0.562365
 C        -0.257936         3.520414         1.799445
 C        -1.074602         2.492895         2.656181
 C        -0.773224         1.100574         2.182227
 C        -1.832665         3.496986         1.787960
 O        -2.466607         3.044597         0.593845
 C        -2.150615         1.715944         0.207443
 H        -0.720089        -0.008368        -0.782771
 H         1.137070         2.438069         0.539227
 H        -0.187389         3.205097        -0.386363
 H         0.364646         4.321230         2.120485
 H        -1.123902         2.652637         3.735019
 H         0.205518         0.842695         2.600662
 H        -1.592008         0.349349         2.316142
 H        -2.506073         4.183166         2.215611
 H        -2.969813         0.977751         0.498939
 H        -2.240625         1.780010        -0.859318
