19
Iteration:  4647
 O        -0.085036         0.305341        -0.075630
 C        -0.638757         1.387784         0.601669
 C         0.326468         2.458835         0.533739
 C        -0.343232         3.529141         1.582502
 C        -1.005385         2.599530         2.682817
 C        -0.885644         1.196211         2.113356
 C        -1.849390         3.613524         1.794079
 O        -2.768181         2.909443         0.914745
 C        -2.093783         1.828811         0.122786
 H         0.825270         0.555331        -0.237117
 H         1.255575         2.058894         0.888058
 H         0.387873         2.856317        -0.520669
 H         0.185126         4.464878         1.672431
 H        -0.761295         2.577775         3.751340
 H         0.051180         0.712003         2.610054
 H        -1.656766         0.514195         2.322307
 H        -2.206885         4.459340         2.285162
 H        -2.616004         0.897790         0.307296
 H        -2.179685         2.157583        -0.875920
