19
Iteration:   875charge 0 multiplicity 1
 O        -0.230122         0.375925        -0.110864
 C        -0.623764         1.511605         0.577191
 C         0.385304         2.622431         0.768723
 C        -0.324919         3.367472         1.819229
 C        -1.171402         2.506201         2.772880
 C        -1.123687         1.069213         2.203321
 C        -1.818682         3.493309         1.812139
 O        -2.457074         2.959137         0.603394
 C        -1.902462         1.919418        -0.136923
 H         0.594529        -0.015880         0.190355
 H         1.337124         2.237330         1.182200
 H         0.353665         3.234361        -0.188551
 H         0.103630         4.291855         2.288477
 H        -1.162729         2.457456         3.895834
 H        -0.491695         0.377956         2.760624
 H        -2.233228         0.732362         2.086266
 H        -2.395189         4.362690         2.135560
 H        -2.566744         1.088439        -0.051507
 H        -1.819123         2.058144        -1.189804
