19
Iteration:  3407charge 0 multiplicity 1
 O        -0.234680         0.222403        -0.060213
 C        -0.626171         1.401187         0.612339
 C         0.267918         2.741593         0.517953
 C        -0.385127         3.601155         1.693476
 C        -0.939709         2.586078         2.718059
 C        -0.679900         1.205182         2.084250
 C        -1.843623         3.454113         1.792603
 O        -2.676021         2.929199         0.738606
 C        -2.067740         1.716167         0.238094
 H        -0.578397         0.166388        -0.965814
 H         1.298308         2.558754         0.843049
 H         0.225332         3.435565        -0.293094
 H         0.086887         4.601159         1.974687
 H        -0.961431         2.629330         3.864463
 H         0.234037         0.657444         2.584119
 H        -1.521385         0.384625         2.223437
 H        -2.465513         4.256159         2.229701
 H        -2.622925         0.750826         0.508798
 H        -2.064409         1.724792        -0.906144
