19
Iteration:  2299
 O        -0.128198         0.262968        -0.041728
 C        -0.601159         1.428603         0.621596
 C         0.222199         2.658181         0.590214
 C        -0.307460         3.389698         1.851463
 C        -1.137365         2.446025         2.738573
 C        -0.955483         1.147527         2.136243
 C        -1.825763         3.431227         1.808592
 O        -2.429595         3.164382         0.565025
 C        -2.055423         1.892413         0.037150
 H        -0.717295        -0.490907         0.196141
 H         1.261651         2.510396         0.895784
 H         0.276124         3.264389        -0.375473
 H         0.230830         4.217932         2.181995
 H        -1.346657         2.587114         3.786684
 H        -0.201963         0.566151         2.725269
 H        -1.862731         0.539200         2.102208
 H        -2.312865         4.280812         2.253320
 H        -2.716450         1.010377         0.290507
 H        -1.981162         2.018002        -1.045378
