19
Iteration:  1030
 O        -0.139784         0.221981        -0.118821
 C        -0.691471         1.381488         0.602425
 C         0.267380         2.623688         0.754298
 C        -0.337307         3.488489         1.859819
 C        -1.149510         2.475770         2.745718
 C        -1.008948         1.090479         2.149794
 C        -1.870194         3.445021         1.808091
 O        -2.515247         3.099071         0.620008
 C        -1.874601         1.981682        -0.106105
 H         0.732726         0.057562         0.281617
 H         1.274808         2.218320         1.045093
 H         0.394034         3.021526        -0.267955
 H         0.215785         4.224367         2.314828
 H        -1.420763         2.739934         3.793471
 H        -0.235996         0.402043         2.551665
 H        -1.986823         0.502836         2.156356
 H        -2.389629         4.348151         2.341275
 H        -2.688014         1.261019        -0.074687
 H        -1.673160         2.307484        -1.139600
