19
Iteration:  2112
 O        -0.310031         0.276099        -0.050722
 C        -0.727696         1.448727         0.668223
 C         0.439300         2.529359         0.850403
 C        -0.296707         3.461716         1.826566
 C        -1.238488         2.448055         2.640909
 C        -0.898325         1.078269         2.110574
 C        -1.772224         3.433308         1.711895
 O        -2.550060         3.127754         0.580630
 C        -1.966232         2.016034        -0.088605
 H         0.284720        -0.178765         0.598955
 H         1.268106         2.024334         1.355989
 H         0.926906         3.067401        -0.036476
 H         0.229592         4.337313         2.414241
 H        -1.507347         2.608575         3.759155
 H         0.130892         0.797583         2.536723
 H        -1.472896         0.165873         2.113798
 H        -2.438817         4.226254         2.208337
 H        -2.793920         1.264153        -0.226841
 H        -1.583452         2.303992        -1.056717
