19
Iteration:  2216charge 0 multiplicity 1
 O        -0.277959         0.187206         0.002835
 C        -0.638195         1.443030         0.647532
 C         0.303984         2.591937         0.757348
 C        -0.322076         3.469080         1.845564
 C        -1.167957         2.482775         2.645627
 C        -0.970750         1.108167         2.082409
 C        -1.792532         3.546539         1.757935
 O        -2.534379         3.065261         0.624546
 C        -1.831363         1.913829         0.003013
 H        -0.621855         0.314639        -0.916184
 H         1.266561         2.326271         1.264855
 H         0.529550         3.165097        -0.122548
 H         0.269536         4.263452         2.399666
 H        -1.096624         2.683534         3.743519
 H        -0.011905         0.593659         2.335277
 H        -1.864502         0.335534         2.155916
 H        -2.457890         4.303230         2.209164
 H        -2.522782         1.073780        -0.081784
 H        -1.698629         2.293608        -1.099877
