19
Iteration:  3499
 O        -0.115643         0.295284         0.008844
 C        -0.624317         1.428439         0.571584
 C         0.206032         2.759145         0.498216
 C        -0.272910         3.587944         1.579883
 C        -0.869169         2.662081         2.706801
 C        -0.836824         1.245929         2.064049
 C        -1.785976         3.449582         1.823347
 O        -2.785932         2.672118         0.985664
 C        -2.072861         1.818751         0.048110
 H        -0.839682        -0.356118         0.071268
 H         1.294729         2.427371         0.540522
 H        -0.006955         3.278889        -0.493449
 H         0.310332         4.467313         1.709660
 H        -0.844082         2.630394         3.780522
 H         0.167358         0.757814         2.387049
 H        -1.687765         0.500633         2.284320
 H        -2.205637         4.440803         2.179918
 H        -2.694448         0.891888         0.024006
 H        -2.226596         2.113852        -1.091634
