19
Iteration:  4082charge 0 multiplicity 1
 O        -0.167621         0.279312        -0.058047
 C        -0.693655         1.445813         0.600800
 C         0.095584         2.750816         0.347413
 C        -0.259933         3.590475         1.579961
 C        -0.897666         2.686321         2.723383
 C        -0.747054         1.250016         2.242569
 C        -1.806138         3.475276         1.805803
 O        -2.654244         2.744384         0.925153
 C        -2.057275         1.630296         0.197455
 H        -0.461317         0.191429        -1.000576
 H         1.223576         2.625514         0.342343
 H        -0.289535         3.160134        -0.601297
 H         0.145978         4.548059         1.854703
 H        -0.721191         2.963759         3.779954
 H         0.020859         0.791365         2.737705
 H        -1.542663         0.515232         2.393590
 H        -2.256296         4.398600         1.943103
 H        -2.633733         0.800290         0.463434
 H        -2.171591         1.728872        -0.945968
