19
Iteration:   654charge 0 multiplicity 1
 O        -0.122843         0.249457        -0.075744
 C        -0.679748         1.389070         0.552295
 C         0.408447         2.662504         0.869430
 C        -0.328950         3.359937         1.892878
 C        -1.184757         2.440698         2.685861
 C        -0.995148         1.113599         2.055531
 C        -1.843286         3.525335         1.786751
 O        -2.448098         3.157599         0.573447
 C        -2.147541         1.930247        -0.046818
 H         0.609592        -0.073263         0.456881
 H         1.318362         2.150939         1.221481
 H         0.495127         3.078710        -0.172988
 H         0.417113         4.094453         2.334077
 H        -1.148739         2.604093         3.793567
 H        -0.241208         0.531700         2.523209
 H        -1.852883         0.296465         2.097371
 H        -2.462580         4.482330         2.001939
 H        -2.838914         1.112456         0.220852
 H        -2.140625         2.217430        -1.203220
