19
Iteration:  4193charge 0 multiplicity 1
 O        -0.057535         0.347399        -0.103220
 C        -0.757128         1.366256         0.692624
 C         0.055563         2.621411         0.472137
 C        -0.300464         3.637310         1.561236
 C        -0.805604         2.663504         2.650092
 C        -0.686425         1.196787         2.225780
 C        -1.803856         3.509403         1.873637
 O        -2.678593         2.863801         0.768712
 C        -2.163609         1.624969         0.249082
 H        -0.617614         0.157380        -0.859365
 H         1.140755         2.375899         0.509511
 H        -0.116256         2.953902        -0.553034
 H         0.034476         4.755114         1.506646
 H        -0.676501         2.807191         3.732376
 H         0.202871         0.698920         2.574446
 H        -1.578951         0.686275         2.600034
 H        -2.456293         4.247486         2.468044
 H        -2.840477         0.835845         0.386947
 H        -2.002251         1.723822        -0.905704
