19
Iteration:  2572
 O        -0.136602         0.376303        -0.261734
 C        -0.735330         1.323007         0.716580
 C         0.258178         2.553568         0.692649
 C        -0.324736         3.537311         1.612081
 C        -1.038361         2.674069         2.722082
 C        -0.935437         1.113105         2.378925
 C        -1.793245         3.491222         1.704742
 O        -2.581055         2.876371         0.827839
 C        -1.945895         1.863309        -0.012494
 H        -0.880267        -0.211869        -0.549914
 H         1.253641         2.267840         1.066155
 H         0.341722         2.957150        -0.382457
 H         0.228571         4.419288         1.899929
 H        -1.149429         3.094539         3.675470
 H         0.110088         0.754824         2.606197
 H        -1.711819         0.430398         2.728495
 H        -2.311669         4.205074         2.203234
 H        -2.725042         1.112713        -0.204482
 H        -1.724064         2.316780        -1.077291
