19
Iteration:  4943
 O        -0.245127         0.277902        -0.190556
 C        -0.654454         1.346591         0.658456
 C         0.228901         2.657633         0.539684
 C        -0.377750         3.547828         1.678129
 C        -0.967514         2.621094         2.685775
 C        -0.684367         1.198821         2.200012
 C        -1.826540         3.520219         1.758332
 O        -2.658855         2.898977         0.782105
 C        -2.077513         1.784316         0.178618
 H         0.413355        -0.186239         0.371414
 H         1.286607         2.342244         0.647474
 H         0.105975         3.114412        -0.472771
 H        -0.024164         4.576030         1.759328
 H        -0.861741         2.609615         3.728405
 H         0.375689         0.864788         2.636480
 H        -1.516599         0.632548         2.593239
 H        -2.339162         4.361202         2.117135
 H        -2.795835         0.885433         0.467426
 H        -2.108776         1.909022        -0.909665
