19
Iteration:  3275charge 0 multiplicity 1
 O        -0.135491         0.273862        -0.007350
 C        -0.699294         1.435715         0.638826
 C         0.275261         2.640113         0.529151
 C        -0.374678         3.462572         1.598659
 C        -0.974687         2.577460         2.705987
 C        -0.793799         1.189315         2.156255
 C        -1.805314         3.507172         1.810337
 O        -2.719650         2.809930         0.887346
 C        -2.027012         1.946579         0.002362
 H        -0.701392         0.081493        -0.757042
 H         1.234021         2.396837         1.043326
 H         0.391164         3.113501        -0.422876
 H         0.091430         4.374519         1.747925
 H        -0.797215         2.770756         3.763688
 H         0.118382         0.711076         2.527166
 H        -1.456194         0.335066         2.431460
 H        -2.326516         4.291565         2.314071
 H        -2.526678         1.019804        -0.254952
 H        -1.786873         2.509894        -0.965381
