19
Iteration:   176charge 0 multiplicity 1
 O        -0.232204         0.272022        -0.142823
 C        -0.664398         1.353751         0.688978
 C         0.255179         2.713899         0.776982
 C        -0.347250         3.462296         1.944225
 C        -1.149377         2.447934         2.748175
 C        -1.025488         1.047939         2.128352
 C        -1.815491         3.509920         1.758674
 O        -2.407787         3.204327         0.492909
 C        -1.953570         1.797881        -0.030321
 H         0.453273        -0.220468         0.263906
 H         1.296805         2.232887         1.022935
 H         0.200611         3.239615        -0.199411
 H         0.270061         4.201547         2.396553
 H        -0.976035         2.545628         3.876093
 H        -0.144923         0.384504         2.578454
 H        -1.884640         0.437753         2.003291
 H        -2.371930         4.366505         2.314201
 H        -2.816621         1.147493        -0.165262
 H        -1.616422         2.105808        -1.085674
