19
Iteration:  1480charge 0 multiplicity 1
 O        -0.177969         0.316828        -0.061838
 C        -0.728902         1.344602         0.636593
 C         0.266487         2.668997         0.725605
 C        -0.235291         3.458028         1.902334
 C        -1.111755         2.479570         2.759454
 C        -1.211931         1.160327         2.071778
 C        -1.771317         3.550685         1.762687
 O        -2.504105         2.894467         0.720590
 C        -1.836411         1.923415        -0.194616
 H         0.705583         0.224661         0.301204
 H         1.308881         2.300411         0.984440
 H         0.214098         3.171180        -0.257773
 H         0.428297         4.267099         2.253895
 H        -1.116711         2.691495         3.749164
 H        -0.683109         0.276874         2.488684
 H        -2.350319         0.847634         1.945728
 H        -2.356172         4.218969         2.400994
 H        -2.563088         1.249116        -0.602033
 H        -1.358582         2.398235        -0.973478
