19
Iteration:   659charge 0 multiplicity 1
 O        -0.104482         0.248788        -0.073694
 C        -0.682645         1.428743         0.535798
 C         0.426425         2.619098         0.837080
 C        -0.372246         3.380619         1.874746
 C        -1.190941         2.440712         2.746850
 C        -1.043979         1.112929         2.062671
 C        -1.825195         3.492769         1.761924
 O        -2.416207         3.152493         0.557458
 C        -2.168170         1.945397        -0.053398
 H         0.614036         0.010227         0.556680
 H         1.405124         2.210167         1.134615
 H         0.507228         3.106897        -0.114857
 H         0.276468         4.174832         2.522543
 H        -1.017169         2.541569         3.794391
 H        -0.122799         0.515821         2.467712
 H        -1.739983         0.353416         2.209312
 H        -2.303786         4.334009         2.143405
 H        -2.988853         1.245554         0.236605
 H        -2.250659         2.107877        -1.095428
