19
Iteration:  3027
 O        -0.137065         0.280214        -0.004979
 C        -0.684032         1.459068         0.616415
 C         0.371283         2.501647         0.653654
 C        -0.318545         3.534603         1.594606
 C        -0.945759         2.653985         2.648664
 C        -1.006127         1.198796         2.063647
 C        -1.828010         3.444696         1.750918
 O        -2.724444         2.753266         1.007459
 C        -1.999053         1.999101        -0.029115
 H         0.148748         0.561523        -0.878703
 H         1.193890         2.026215         1.158637
 H         0.722940         2.884500        -0.393102
 H         0.122606         4.477822         1.836443
 H        -0.825423         2.674746         3.704268
 H        -0.104800         0.620564         2.378160
 H        -1.954834         0.677285         2.320020
 H        -2.364161         4.345337         2.198164
 H        -2.679779         1.115080        -0.234369
 H        -1.790265         2.627165        -0.904903
