19
Iteration:   693charge 0 multiplicity 1
 O        -0.230618         0.368731        -0.174734
 C        -0.657103         1.361714         0.737530
 C         0.219491         2.618388         0.758386
 C        -0.325134         3.424492         1.914386
 C        -1.206047         2.456249         2.666041
 C        -1.022483         0.993571         2.157205
 C        -1.799103         3.558718         1.726255
 O        -2.365178         3.110981         0.530010
 C        -1.929721         1.893750         0.011243
 H         0.464980        -0.191550         0.281162
 H         1.314063         2.571558         0.781145
 H        -0.041170         3.182560        -0.098597
 H         0.328598         3.994526         2.577284
 H        -1.258158         2.608538         3.734208
 H        -0.141630         0.519749         2.698858
 H        -1.909157         0.454501         2.189355
 H        -2.423334         4.300886         2.220539
 H        -2.812833         1.198717         0.012557
 H        -1.577891         2.067016        -0.949262
