19
Iteration:   859
 O        -0.179219         0.353244        -0.175151
 C        -0.705834         1.359356         0.706677
 C         0.296113         2.540254         0.791665
 C        -0.276522         3.461628         1.905047
 C        -1.163467         2.511213         2.740028
 C        -1.062076         1.135648         2.106264
 C        -1.832064         3.439780         1.740446
 O        -2.571247         3.038566         0.613278
 C        -1.871295         1.933245        -0.087175
 H         0.676427        -0.007309         0.190309
 H         1.314008         2.218034         1.085868
 H         0.476538         3.026512        -0.147782
 H         0.320494         4.246197         2.339631
 H        -1.295936         2.800299         3.768398
 H        -0.193927         0.594663         2.575800
 H        -1.923847         0.525250         2.273964
 H        -2.345257         4.345579         2.208003
 H        -2.602628         1.108508        -0.372424
 H        -1.277926         2.359386        -0.978210
