19
Iteration:  4560
 O        -0.129973         0.300661        -0.058354
 C        -0.730188         1.442531         0.604372
 C         0.218592         2.601176         0.651628
 C        -0.327251         3.523217         1.586582
 C        -0.909481         2.614091         2.671783
 C        -0.781053         1.187668         2.066036
 C        -1.806674         3.431294         1.799771
 O        -2.681640         2.988595         0.788233
 C        -2.141448         1.778435         0.107406
 H         0.126714        -0.315489         0.636969
 H         1.141005         2.277057         0.995258
 H         0.383296         3.035804        -0.353686
 H         0.220869         4.452239         1.849892
 H        -0.715426         2.680402         3.715831
 H         0.180765         0.793653         2.474689
 H        -1.572440         0.485022         2.288757
 H        -2.366595         4.129694         2.341223
 H        -2.751490         0.910983         0.312970
 H        -2.168291         2.044739        -0.999825
