19
Iteration:  1547
 O        -0.341097         0.308009        -0.202431
 C        -0.669030         1.421446         0.688926
 C         0.422562         2.645633         0.823240
 C        -0.367946         3.461614         1.913570
 C        -1.218024         2.483280         2.748653
 C        -0.916858         1.089657         2.159126
 C        -1.822911         3.424965         1.742555
 O        -2.443362         3.115545         0.522557
 C        -1.923380         1.861789        -0.061475
 H         0.375447        -0.306107         0.120568
 H         1.420984         2.315561         1.266514
 H         0.368904         3.256268        -0.081363
 H         0.116141         4.309435         2.301693
 H        -1.418883         2.623686         3.845539
 H         0.008945         0.661032         2.642293
 H        -1.819164         0.409432         2.354822
 H        -2.524703         4.293638         2.181307
 H        -2.726111         1.084602        -0.111064
 H        -1.538698         1.979175        -1.034024
