19
Iteration:  4079
 O        -0.148901         0.261736        -0.049973
 C        -0.697287         1.452923         0.601343
 C         0.107485         2.772839         0.358731
 C        -0.286932         3.567589         1.581720
 C        -0.891392         2.699873         2.737656
 C        -0.763855         1.254922         2.194653
 C        -1.781682         3.458540         1.800469
 O        -2.667107         2.755264         0.928158
 C        -2.061052         1.635422         0.203055
 H        -0.490714         0.096076        -0.932141
 H         1.189230         2.619334         0.270300
 H        -0.227037         3.227656        -0.537958
 H         0.094385         4.518290         1.833680
 H        -0.744044         3.021391         3.783567
 H         0.151193         0.723774         2.569275
 H        -1.647665         0.494449         2.479140
 H        -2.219497         4.516823         1.963094
 H        -2.598935         0.715949         0.523832
 H        -2.183587         1.739786        -0.926242
