19
Iteration:  4290
 O        -0.147809         0.236966        -0.002742
 C        -0.677869         1.402513         0.602185
 C         0.126268         2.719313         0.432901
 C        -0.305377         3.517160         1.605331
 C        -0.896478         2.635066         2.656417
 C        -0.734780         1.226121         2.148160
 C        -1.802416         3.498491         1.771415
 O        -2.679862         2.855166         0.864801
 C        -2.157625         1.726603         0.222194
 H         0.468893         0.538726        -0.676363
 H         1.181105         2.414653         0.477449
 H        -0.017578         3.299025        -0.423117
 H         0.277213         4.510077         1.801095
 H        -0.680114         2.856581         3.706731
 H         0.216140         0.892527         2.542600
 H        -1.525813         0.432412         2.457550
 H        -2.464837         4.276779         2.291527
 H        -2.778124         0.780725         0.424977
 H        -2.291870         1.871691        -0.854910
