19
Iteration:  1018
 O        -0.113882         0.308942        -0.094074
 C        -0.672850         1.363704         0.699339
 C         0.247959         2.578672         0.763579
 C        -0.343244         3.483608         1.843588
 C        -1.106768         2.491668         2.787636
 C        -1.064896         0.965541         2.116316
 C        -1.786744         3.509380         1.839098
 O        -2.542025         3.147816         0.599199
 C        -1.962448         1.891397        -0.203653
 H         0.761792         0.020340         0.301815
 H         1.306913         2.378380         1.070709
 H         0.237250         3.234019        -0.149499
 H         0.126506         4.385467         1.890623
 H        -1.124336         2.602584         3.955899
 H        -0.176155         0.493644         2.573066
 H        -2.003952         0.277868         2.287505
 H        -2.401574         4.420470         2.305180
 H        -2.775193         1.205227        -0.566675
 H        -1.424322         2.325888        -1.108771
