19
Iteration:   701
 O        -0.254012         0.339549        -0.227572
 C        -0.687196         1.320499         0.720968
 C         0.281593         2.678718         0.711993
 C        -0.340357         3.413078         1.945339
 C        -1.232981         2.451704         2.704980
 C        -1.043476         1.021137         2.228936
 C        -1.783488         3.526036         1.766175
 O        -2.374471         3.134767         0.542658
 C        -1.887772         1.882286        -0.006629
 H         0.449431        -0.320109         0.053121
 H         1.307618         2.515654         0.748758
 H         0.047484         3.295074        -0.175132
 H         0.100874         4.317841         2.588297
 H        -1.226242         2.726762         3.733358
 H        -0.212843         0.623296         2.771804
 H        -1.875457         0.302925         2.304678
 H        -2.380662         4.354106         1.887953
 H        -2.516504         1.003221         0.036878
 H        -1.546259         2.133340        -1.064645
