19
Iteration:   594charge 0 multiplicity 1
 O        -0.252570         0.232916        -0.185535
 C        -0.696648         1.431783         0.664670
 C         0.357925         2.541593         0.867358
 C        -0.300070         3.500635         1.858654
 C        -1.151265         2.474983         2.779540
 C        -1.034734         1.133833         2.107611
 C        -1.828883         3.483352         1.743047
 O        -2.540586         3.031269         0.604088
 C        -1.883217         2.003972        -0.120748
 H         0.612164        -0.087683         0.208255
 H         1.410927         2.181108         1.262195
 H         0.671832         2.968557        -0.071531
 H         0.228406         4.374429         2.358342
 H        -1.275397         2.621090         3.870600
 H        -0.125282         0.575528         2.523338
 H        -1.915617         0.598466         2.280769
 H        -2.460864         4.237349         2.212875
 H        -2.542326         1.119151        -0.295053
 H        -1.710734         2.402535        -1.061939
