19
Iteration:  1342
 O        -0.119132         0.285107        -0.119619
 C        -0.695021         1.389670         0.648494
 C         0.219115         2.565400         0.719362
 C        -0.347783         3.388542         1.883069
 C        -1.172753         2.428443         2.773898
 C        -0.976881         1.088698         2.203208
 C        -1.831447         3.443525         1.785041
 O        -2.425162         3.186928         0.535118
 C        -2.017703         1.960075        -0.095785
 H         0.585604         0.015107         0.482343
 H         1.314571         2.316451         0.831560
 H         0.244952         3.181706        -0.193258
 H         0.226892         4.147145         2.201543
 H        -1.139393         2.683645         3.801125
 H        -0.023679         0.764460         2.687847
 H        -1.808729         0.480508         2.337613
 H        -2.467352         4.179016         2.245663
 H        -2.819943         1.194661        -0.115943
 H        -1.767087         2.372474        -1.146563
