19
Iteration:  3643
 O        -0.312096         0.260965        -0.129649
 C        -0.673595         1.444424         0.598033
 C         0.222263         2.773541         0.540330
 C        -0.304443         3.595334         1.654333
 C        -0.956172         2.607745         2.654141
 C        -0.633778         1.238787         2.142499
 C        -1.787367         3.461095         1.733081
 O        -2.677996         2.814644         0.864237
 C        -2.127542         1.653476         0.194387
 H         0.676464         0.229557        -0.172048
 H         1.234292         2.562577         0.763554
 H         0.023122         3.356810        -0.353474
 H         0.155276         4.569944         1.925774
 H        -0.988024         2.928434         3.742031
 H         0.359688         0.834057         2.559004
 H        -1.315273         0.459671         2.450600
 H        -2.369573         4.164978         2.200065
 H        -2.758185         0.876853         0.631389
 H        -2.290557         1.567087        -0.907796
