19
Iteration:   779
 O        -0.130908         0.284924        -0.192316
 C        -0.707736         1.395337         0.621514
 C         0.310201         2.577741         0.719574
 C        -0.293065         3.383811         1.888086
 C        -1.187226         2.513093         2.757642
 C        -1.175835         1.152908         2.116142
 C        -1.851683         3.547333         1.839814
 O        -2.481614         2.988267         0.680225
 C        -1.848972         1.940379        -0.095647
 H         0.633881        -0.032516         0.359579
 H         1.310417         2.318131         1.018929
 H         0.277844         3.252802        -0.127785
 H         0.296131         4.249757         2.266335
 H        -1.145880         2.585662         3.865575
 H        -0.395384         0.634767         2.677058
 H        -2.096600         0.627556         2.204950
 H        -2.319863         4.535639         2.076822
 H        -2.532411         1.122180        -0.408888
 H        -1.411445         2.263185        -1.114009
