19
Iteration:  3737
 O        -0.215633         0.231809         0.058926
 C        -0.601490         1.434601         0.594787
 C         0.208468         2.839615         0.357053
 C        -0.350696         3.650081         1.530390
 C        -0.908896         2.628755         2.663195
 C        -0.770117         1.204308         2.066542
 C        -1.833599         3.440909         1.842721
 O        -2.676472         2.733040         0.989515
 C        -2.077821         1.676449         0.160728
 H         0.248463         0.392723        -0.781674
 H         1.242876         2.446355         0.622227
 H        -0.046619         3.447998        -0.509979
 H         0.090522         4.624390         1.746374
 H        -0.461310         2.808741         3.672836
 H         0.065473         0.702184         2.511202
 H        -1.711458         0.578678         2.303366
 H        -2.337427         4.273332         2.315861
 H        -2.669323         0.760803         0.455584
 H        -2.373327         2.077543        -0.887261
