19
Iteration:  4532
 O        -0.138966         0.366229        -0.208378
 C        -0.660887         1.380005         0.693942
 C         0.190139         2.698454         0.519211
 C        -0.220216         3.530338         1.649539
 C        -1.013723         2.657014         2.721105
 C        -0.914719         1.186306         2.237147
 C        -1.752495         3.475117         1.775572
 O        -2.591532         2.908782         0.781039
 C        -2.055744         1.646813         0.147962
 H        -0.738930        -0.396009        -0.224673
 H         1.363848         2.521682         0.539846
 H        -0.178621         3.157853        -0.397889
 H         0.284248         4.399706         1.937805
 H        -1.056419         2.841116         3.855483
 H        -0.169215         0.714770         2.877844
 H        -1.874856         0.562059         2.385283
 H        -2.300277         4.356423         2.147232
 H        -2.684185         0.770994         0.489944
 H        -2.048872         1.843634        -0.914447
