19
Iteration:  1287
 O        -0.222821         0.336245        -0.175174
 C        -0.635142         1.445169         0.620797
 C         0.430745         2.520559         0.821325
 C        -0.310352         3.410659         1.879929
 C        -1.146785         2.558773         2.802758
 C        -1.040523         1.098145         2.088802
 C        -1.853186         3.511480         1.764266
 O        -2.610256         3.050884         0.626831
 C        -1.942093         1.849689        -0.110045
 H         0.582064         0.101793         0.263772
 H         1.269182         1.956498         1.311091
 H         0.766718         3.245660         0.081300
 H         0.213620         4.284772         2.102532
 H        -1.251170         2.757170         3.825882
 H        -0.147522         0.653921         2.569003
 H        -1.796410         0.418095         2.305824
 H        -2.256661         4.487842         2.020321
 H        -2.563647         0.969151        -0.197018
 H        -1.760737         2.257469        -1.135446
