19
Iteration:  1528
 O        -0.254785         0.271491        -0.167220
 C        -0.591779         1.379370         0.659365
 C         0.388316         2.550842         0.874869
 C        -0.331416         3.494911         1.826804
 C        -1.215773         2.458807         2.605658
 C        -0.940145         1.056343         2.095708
 C        -1.886740         3.535544         1.744067
 O        -2.584507         3.107490         0.640845
 C        -1.903206         1.981868        -0.021222
 H         0.474500        -0.230869         0.259499
 H         1.182702         2.023200         1.420550
 H         0.749617         3.032565        -0.048753
 H         0.279533         4.237299         2.376988
 H        -1.562630         2.697360         3.687472
 H        -0.017930         0.760783         2.777864
 H        -1.732298         0.336243         2.149357
 H        -2.268483         4.429441         2.274865
 H        -2.380658         0.989134        -0.021087
 H        -1.767972         2.233303        -1.094115
