19
Iteration:  4097charge 0 multiplicity 1
 O        -0.208588         0.310088        -0.123157
 C        -0.612497         1.362140         0.739228
 C         0.110442         2.684921         0.409668
 C        -0.343399         3.607572         1.535949
 C        -0.893070         2.706830         2.619697
 C        -0.691869         1.226054         2.286159
 C        -1.824815         3.488315         1.799161
 O        -2.637836         2.756791         0.881906
 C        -2.122318         1.658399         0.211377
 H        -0.211515         0.752542        -0.975649
 H         1.170127         2.437900         0.281788
 H        -0.121774         3.141378        -0.636901
 H         0.384381         4.461556         1.745678
 H        -0.844583         3.008891         3.657452
 H         0.292507         0.799527         2.779487
 H        -1.567158         0.748324         2.687038
 H        -2.467761         4.124944         2.460256
 H        -2.786129         0.722131         0.254002
 H        -2.008471         1.970051        -0.803716
