19
Iteration:  1618
 O        -0.117385         0.338071        -0.105831
 C        -0.707958         1.407910         0.623673
 C         0.357990         2.555462         0.770460
 C        -0.318713         3.321202         1.867652
 C        -1.231045         2.480933         2.713437
 C        -1.047253         1.113523         2.100181
 C        -1.842307         3.494611         1.768173
 O        -2.419925         3.182574         0.527259
 C        -2.034766         1.869249         0.051140
 H         0.719414         0.113639         0.395010
 H         1.322819         2.150856         1.015269
 H         0.275823         3.146796        -0.138721
 H         0.189074         4.126499         2.431690
 H        -1.327676         2.541857         3.752803
 H        -0.007042         0.650661         2.450042
 H        -1.815811         0.373854         2.099324
 H        -2.238059         4.344717         2.185319
 H        -2.917900         1.241610         0.166498
 H        -1.946839         2.128817        -1.050478
