19
Iteration:  4746
 O        -0.015204         0.418012        -0.164152
 C        -0.727499         1.364170         0.682076
 C         0.154446         2.557004         0.505266
 C        -0.270559         3.406469         1.651124
 C        -1.090851         2.580215         2.636183
 C        -0.688939         1.191880         2.210862
 C        -1.778982         3.511939         1.741683
 O        -2.666306         3.062685         0.770850
 C        -2.220756         1.728684         0.195126
 H         0.051976        -0.383762         0.401124
 H         1.214225         2.181434         0.671704
 H         0.155001         2.957119        -0.574050
 H         0.203452         4.326531         1.929296
 H        -1.146311         2.633669         3.802319
 H         0.366344         1.021068         2.618610
 H        -1.263466         0.459358         2.646751
 H        -2.236752         4.355630         2.357686
 H        -2.924040         0.996177         0.634857
 H        -2.271793         1.744698        -0.876513
