19
Iteration:  1892
 O        -0.446566         0.227092        -0.129378
 C        -0.598262         1.487884         0.662489
 C         0.405448         2.591355         0.809893
 C        -0.281948         3.459048         1.997001
 C        -1.224555         2.526567         2.696963
 C        -1.043450         1.123746         2.124364
 C        -1.830218         3.478941         1.780838
 O        -2.509222         2.995909         0.589755
 C        -1.758617         1.920646        -0.152553
 H         0.513989        -0.020557         0.001216
 H         1.446431         2.153692         1.051554
 H         0.563707         3.283698        -0.047802
 H         0.206111         4.363497         2.263475
 H        -1.372697         2.512626         3.768571
 H        -0.050954         0.750225         2.485388
 H        -1.791027         0.414195         2.249859
 H        -2.555189         4.334100         2.112039
 H        -2.538275         1.159456        -0.442805
 H        -1.393722         2.478393        -1.042314
