19
Iteration:  2946
 O        -0.193083         0.250165        -0.108916
 C        -0.686709         1.400760         0.654303
 C         0.198470         2.605185         0.686836
 C        -0.354640         3.479132         1.798187
 C        -1.100056         2.509210         2.691424
 C        -0.625319         1.094679         2.099753
 C        -1.818570         3.432109         1.786234
 O        -2.501815         3.157970         0.472216
 C        -2.199114         1.832944         0.272216
 H         0.092401         0.484642        -1.009339
 H         1.253482         2.382558         1.018478
 H         0.175662         3.272111        -0.181513
 H         0.191034         4.396563         2.086778
 H        -1.336191         2.598509         3.761968
 H         0.419663         0.944459         2.440437
 H        -1.214222         0.278999         2.603988
 H        -2.261508         4.216641         2.238011
 H        -2.942164         1.211118         0.889447
 H        -2.460305         1.495382        -0.741737
