19
Iteration:   853charge 0 multiplicity 1
 O        -0.148590         0.307621        -0.174579
 C        -0.737400         1.341333         0.659571
 C         0.307489         2.540433         0.839042
 C        -0.261267         3.459566         1.860238
 C        -1.195649         2.551186         2.692105
 C        -1.013039         1.070650         2.111740
 C        -1.815106         3.464707         1.734617
 O        -2.584992         3.039491         0.628951
 C        -1.890934         2.001056        -0.040315
 H         0.710562        -0.050358         0.146245
 H         1.260648         2.206722         1.291853
 H         0.355823         3.107053        -0.147273
 H         0.220141         4.378047         2.325012
 H        -1.475923         2.650443         3.767955
 H        -0.078158         0.690775         2.505105
 H        -1.946769         0.481257         2.477461
 H        -2.365884         4.231324         2.187247
 H        -2.635479         1.373117        -0.459645
 H        -1.275115         2.288587        -0.860682
