19
Iteration:  1736charge 0 multiplicity 1
 O        -0.260871         0.300446        -0.189609
 C        -0.598115         1.416159         0.744636
 C         0.387082         2.547884         0.792927
 C        -0.287447         3.477152         1.851961
 C        -1.214344         2.469641         2.692609
 C        -1.239663         1.091509         2.080687
 C        -1.758410         3.528066         1.744926
 O        -2.505552         2.995502         0.694212
 C        -1.798025         1.948892        -0.061673
 H         0.617628         0.034953         0.093060
 H         1.450099         2.310312         1.108168
 H         0.370605         3.093844        -0.192573
 H         0.226860         4.392844         2.201804
 H        -1.067849         2.642587         3.731561
 H        -0.677515         0.478296         2.759214
 H        -2.227385         0.758746         1.947566
 H        -2.361946         4.270468         2.116946
 H        -2.623353         1.240752        -0.182745
 H        -1.571662         2.346069        -1.016876
