19
Iteration:   839
 O        -0.166114         0.247793        -0.155499
 C        -0.656523         1.361296         0.653144
 C         0.357647         2.517894         0.852384
 C        -0.385831         3.479294         1.818859
 C        -1.242704         2.445688         2.665305
 C        -0.934967         1.042005         2.187381
 C        -1.845294         3.569692         1.734030
 O        -2.572803         3.055271         0.695917
 C        -1.928900         2.075054        -0.168522
 H         0.656638         0.116151         0.310152
 H         1.301686         2.087778         1.259681
 H         0.756630         2.936166        -0.091051
 H         0.240732         4.337375         2.144033
 H        -1.404795         2.622002         3.691446
 H        -0.055335         0.643051         2.738241
 H        -1.716236         0.232124         2.313245
 H        -2.228205         4.435514         2.189657
 H        -2.662416         1.270954        -0.316683
 H        -1.668761         2.636351        -1.007890
