19
Iteration:  1140
 O        -0.247927         0.263208        -0.037812
 C        -0.629155         1.532512         0.545927
 C         0.341465         2.704307         0.734295
 C        -0.217573         3.406590         1.975040
 C        -1.147458         2.492821         2.763398
 C        -1.054899         1.158941         2.042164
 C        -1.865711         3.495606         1.820792
 O        -2.526316         2.974072         0.561491
 C        -1.938492         1.877381        -0.095882
 H         0.498515         0.026250         0.553958
 H         1.355654         2.241954         0.843095
 H         0.519038         3.254453        -0.180119
 H         0.367509         4.124792         2.508490
 H        -1.176778         2.402914         3.800996
 H        -0.262416         0.507350         2.408985
 H        -1.864749         0.436649         1.992515
 H        -2.603977         4.157096         2.164073
 H        -2.595010         0.965545         0.103859
 H        -1.943612         2.132732        -1.213522
