19
Iteration:  2033
 O        -0.143103         0.297696        -0.060330
 C        -0.716268         1.361919         0.623587
 C         0.327463         2.505308         0.775299
 C        -0.316608         3.351225         1.888216
 C        -1.223800         2.474406         2.651990
 C        -1.019920         1.067283         2.163071
 C        -1.835020         3.510758         1.752403
 O        -2.458869         3.230094         0.555242
 C        -2.007807         1.964323        -0.039859
 H         0.820139         0.508425        -0.087969
 H         1.258195         2.111688         1.295430
 H         0.544308         2.949318        -0.230538
 H         0.421514         4.023648         2.299930
 H        -1.257750         2.585660         3.717773
 H        -0.079604         0.656848         2.602342
 H        -1.827536         0.377337         2.305651
 H        -2.317482         4.381987         2.092492
 H        -2.790400         1.158557         0.171694
 H        -1.873605         2.043782        -1.073081
