19
Iteration:  1750
 O        -0.311886         0.281063        -0.144191
 C        -0.646810         1.383497         0.631302
 C         0.404735         2.583675         0.861451
 C        -0.287563         3.395107         1.878665
 C        -1.185925         2.527275         2.683670
 C        -1.052178         1.073434         2.136368
 C        -1.845363         3.551518         1.749948
 O        -2.554317         3.052294         0.591443
 C        -1.871238         1.991384        -0.068549
 H         0.616831        -0.044042        -0.023986
 H         1.439843         2.167213         1.276626
 H         0.726464         3.039888        -0.124044
 H         0.273272         4.019962         2.534000
 H        -1.346843         2.636029         3.770656
 H        -0.177619         0.459527         2.595414
 H        -1.937993         0.444742         2.179470
 H        -2.299474         4.527525         2.233502
 H        -2.458723         1.092001        -0.226931
 H        -1.409358         2.315398        -1.057369
