19
Iteration:  3589charge 0 multiplicity 1
 O        -0.053069         0.256888         0.038095
 C        -0.705358         1.386685         0.601847
 C         0.035597         2.736433         0.420212
 C        -0.308123         3.603500         1.671660
 C        -0.903309         2.565050         2.718909
 C        -0.703082         1.159995         2.075738
 C        -1.795992         3.465141         1.814897
 O        -2.619512         2.956166         0.773192
 C        -2.176831         1.655954         0.248008
 H        -0.042233         0.380426        -0.945893
 H         1.128119         2.586473         0.282143
 H        -0.271766         3.272507        -0.531151
 H         0.171021         4.574852         1.955002
 H        -1.013656         2.656480         3.865915
 H         0.281398         0.808558         2.405934
 H        -1.495200         0.493576         2.338463
 H        -2.367728         4.290301         2.164221
 H        -2.971264         1.039848         0.601823
 H        -2.198744         1.668063        -0.925562
