19
Iteration:  1763
 O        -0.322809         0.249486        -0.119264
 C        -0.682819         1.442608         0.649797
 C         0.410994         2.482803         0.846483
 C        -0.314782         3.412994         1.920726
 C        -1.256422         2.460327         2.728253
 C        -0.878913         1.137438         2.128468
 C        -1.825433         3.421573         1.743923
 O        -2.525914         3.137864         0.564828
 C        -1.920435         2.011908        -0.140375
 H         0.584276         0.097854         0.134841
 H         1.220430         1.926198         1.431613
 H         0.779061         3.142289         0.059287
 H         0.181612         4.355289         2.140982
 H        -1.525030         2.583630         3.806145
 H         0.094428         0.805333         2.630633
 H        -1.674754         0.326917         2.355547
 H        -2.298382         4.428033         2.083141
 H        -2.790576         1.377671        -0.316472
 H        -1.619099         2.381438        -1.194265
