19
Iteration:   894
 O        -0.181610         0.239123        -0.117326
 C        -0.639261         1.424713         0.635436
 C         0.398087         2.725088         0.777382
 C        -0.296317         3.482873         1.894345
 C        -1.177104         2.482356         2.716913
 C        -1.158727         1.137855         2.025054
 C        -1.782998         3.435449         1.794462
 O        -2.497609         3.054417         0.638886
 C        -1.935009         1.845103        -0.037381
 H         0.677447         0.035098         0.344189
 H         1.314720         2.204744         1.094684
 H         0.427562         3.232616        -0.220992
 H         0.221442         4.360472         2.431338
 H        -1.383889         2.571343         3.754754
 H        -0.438882         0.432860         2.452263
 H        -2.168045         0.631352         1.844228
 H        -2.250301         4.213880         2.208298
 H        -2.707237         1.026263        -0.070859
 H        -1.959603         2.253402        -1.065946
