19
Iteration:  4418charge 0 multiplicity 1
 O        -0.029198         0.376669        -0.128499
 C        -0.744192         1.368373         0.715894
 C         0.158403         2.643271         0.515764
 C        -0.303531         3.545206         1.639259
 C        -0.864959         2.611870         2.701475
 C        -0.812370         1.206847         2.233267
 C        -1.779224         3.504783         1.778848
 O        -2.683804         2.871476         0.778625
 C        -2.159350         1.692490         0.124648
 H        -0.797225        -0.091128        -0.511476
 H         1.243735         2.327409         0.687368
 H         0.036640         2.919601        -0.591077
 H         0.296464         4.506631         1.932833
 H        -0.525981         2.934653         3.690235
 H         0.047049         0.731956         2.696172
 H        -1.729289         0.673135         2.546526
 H        -2.428878         4.403852         2.100964
 H        -2.844387         0.889635         0.338856
 H        -2.054704         1.917323        -1.002678
