19
Iteration:  2060
 O        -0.152841         0.332919        -0.086852
 C        -0.722232         1.373938         0.622333
 C         0.246133         2.662919         0.768689
 C        -0.211263         3.419308         1.991971
 C        -1.218812         2.490472         2.711631
 C        -1.205633         1.089420         2.123391
 C        -1.663112         3.474767         1.751356
 O        -2.357511         3.125598         0.558360
 C        -2.011273         1.781098        -0.036221
 H         0.798743         0.520091        -0.239126
 H         1.298850         2.400785         0.796270
 H         0.240002         3.131315        -0.216813
 H         0.476861         4.250916         2.224886
 H        -1.387856         2.619345         3.798291
 H        -0.541039         0.409702         2.652926
 H        -2.270712         0.743229         1.968231
 H        -2.386065         4.326947         2.024695
 H        -2.777668         1.049748         0.240640
 H        -2.076379         1.769149        -1.196178
