19
Iteration:  4487
 O        -0.228193         0.201682         0.071733
 C        -0.691289         1.469869         0.608096
 C         0.261596         2.678388         0.548915
 C        -0.368772         3.574843         1.648490
 C        -0.949799         2.554404         2.661551
 C        -0.661739         1.214930         2.122118
 C        -1.817163         3.376979         1.829118
 O        -2.643011         2.996180         0.686917
 C        -2.188991         1.797201         0.132326
 H         0.334557         0.326881        -0.711471
 H         1.309687         2.228819         0.943091
 H         0.339196         3.124846        -0.443303
 H         0.055733         4.511586         1.891472
 H        -0.788475         2.594573         3.745821
 H         0.300269         0.756825         2.214358
 H        -1.481546         0.422992         2.398890
 H        -2.294156         4.069326         2.413372
 H        -2.846671         0.956540         0.523999
 H        -2.235270         1.901411        -0.921994
