19
Iteration:  3618charge 0 multiplicity 1
 O        -0.142786         0.298646        -0.047262
 C        -0.703241         1.333053         0.680084
 C         0.083110         2.628661         0.330873
 C        -0.416529         3.562497         1.582092
 C        -0.864001         2.584345         2.717301
 C        -0.641448         1.192615         2.222545
 C        -1.911710         3.406328         1.909937
 O        -2.616230         3.022140         0.765300
 C        -2.095442         1.730984         0.152966
 H         0.586377         0.682212        -0.570846
 H         1.163231         2.542964         0.503262
 H        -0.308845         3.006518        -0.591050
 H         0.170982         4.411318         1.950028
 H        -0.601738         2.931783         3.723252
 H         0.413327         0.763212         2.587975
 H        -1.231616         0.292132         2.687880
 H        -2.629226         4.191813         2.377012
 H        -3.063260         1.109989         0.376777
 H        -2.000638         1.729085        -0.883803
