19
Iteration:  1244
 O        -0.177913         0.224326        -0.061703
 C        -0.607573         1.410445         0.627388
 C         0.354416         2.636652         0.701529
 C        -0.307772         3.402444         1.807520
 C        -1.121274         2.466749         2.793502
 C        -1.157422         1.129230         2.119394
 C        -1.841168         3.485330         1.844932
 O        -2.612072         2.987128         0.654922
 C        -1.828989         2.044578        -0.127024
 H         0.651871         0.042684         0.359301
 H         1.436004         2.459295         0.882370
 H         0.174834         3.087174        -0.288015
 H         0.121637         4.334334         2.041006
 H        -0.903499         2.647568         3.822429
 H        -0.360330         0.442306         2.442117
 H        -2.111781         0.619096         2.003916
 H        -2.358642         4.379539         2.225040
 H        -2.525805         1.277560        -0.316966
 H        -1.604556         2.475091        -1.072351
