19
Iteration:  2763charge 0 multiplicity 1
 O        -0.262151         0.196383         0.028643
 C        -0.647281         1.421551         0.604059
 C         0.198651         2.716262         0.565740
 C        -0.307292         3.522720         1.716884
 C        -1.034295         2.570265         2.727896
 C        -0.869991         1.203044         2.082650
 C        -1.777608         3.437352         1.822585
 O        -2.537562         2.951442         0.748428
 C        -2.027756         1.798968         0.061140
 H         0.238948         0.409709        -0.760528
 H         1.249840         2.583616         0.534934
 H         0.134264         3.225859        -0.425319
 H         0.012447         4.487494         2.046711
 H        -0.923366         2.636368         3.808753
 H         0.006453         0.703416         2.429269
 H        -1.673241         0.464859         2.243308
 H        -2.231623         4.167066         2.352876
 H        -2.652110         0.946461         0.252692
 H        -2.014278         2.020961        -1.082392
