19
Iteration:  4164charge 0 multiplicity 1
 O        -0.237721         0.215318         0.021132
 C        -0.634313         1.430406         0.599757
 C         0.076816         2.760505         0.384693
 C        -0.364217         3.554755         1.581366
 C        -0.872662         2.661641         2.725744
 C        -0.636675         1.213058         2.208866
 C        -1.786778         3.530207         1.820648
 O        -2.650526         2.804046         0.857194
 C        -2.089647         1.653439         0.171148
 H        -0.022367         0.315821        -0.930316
 H         1.172364         2.854436         0.306800
 H        -0.328906         3.270216        -0.580233
 H         0.151521         4.489817         1.686183
 H        -0.798034         2.982779         3.768697
 H         0.296913         0.609937         2.502896
 H        -1.555467         0.648246         2.269474
 H        -2.454764         4.313412         2.330370
 H        -2.774199         0.740616         0.370790
 H        -2.018281         1.864693        -0.874257
