19
Iteration:  2647
 O        -0.143217         0.269664        -0.080602
 C        -0.716435         1.370038         0.637474
 C         0.207215         2.576625         0.568331
 C        -0.353577         3.460584         1.673008
 C        -0.960815         2.590932         2.747037
 C        -0.869817         1.199720         2.197449
 C        -1.847335         3.437289         1.877544
 O        -2.647733         2.941582         0.738371
 C        -1.923914         1.980115        -0.074029
 H        -0.461871        -0.543567         0.333632
 H         1.287619         2.370715         0.656315
 H         0.228150         3.103643        -0.322848
 H         0.188943         4.324372         2.004352
 H        -0.933649         2.786519         3.786585
 H         0.057405         0.717100         2.632421
 H        -1.714908         0.655790         2.645394
 H        -2.274459         4.301846         2.202961
 H        -2.611093         1.101883        -0.221066
 H        -1.768559         2.474491        -0.970157
