19
Iteration:  4608charge 0 multiplicity 1
 O        -0.393498         0.292303        -0.076395
 C        -0.648710         1.419655         0.638607
 C         0.215095         2.660297         0.544391
 C        -0.302959         3.581180         1.665628
 C        -0.939748         2.646982         2.733833
 C        -0.826338         1.213268         2.195904
 C        -1.795294         3.455955         1.821411
 O        -2.622339         2.787113         0.821833
 C        -1.903428         1.769048        -0.007888
 H         0.498115         0.113401        -0.444622
 H         1.382185         2.525787         0.587423
 H         0.070807         3.086744        -0.436844
 H         0.076965         4.549271         1.932658
 H        -1.126467         2.698791         3.865864
 H         0.024262         0.751185         2.591630
 H        -1.787614         0.695666         2.648911
 H        -2.426354         4.365754         2.085624
 H        -2.559613         0.869060         0.023188
 H        -1.722469         2.167743        -1.081656
