19
Iteration:   811charge 0 multiplicity 1
 O        -0.302733         0.278181        -0.081383
 C        -0.654143         1.471288         0.644413
 C         0.449270         2.601755         0.823721
 C        -0.300606         3.436064         1.887819
 C        -1.111655         2.460319         2.687510
 C        -1.067104         1.149264         2.057283
 C        -1.899972         3.415116         1.776686
 O        -2.551534         2.978352         0.609022
 C        -1.850207         1.991977        -0.072243
 H         0.587840         0.192749         0.232381
 H         1.438782         2.167882         1.068705
 H         0.551627         3.258912        -0.085002
 H         0.139139         4.438945         2.107435
 H        -1.409327         2.505358         3.760476
 H        -0.315158         0.542973         2.560565
 H        -2.060065         0.644078         2.079477
 H        -2.325103         4.310995         2.262107
 H        -2.445232         1.076025        -0.224925
 H        -1.520462         2.502747        -1.073575
