19
Iteration:  1141
 O        -0.252091         0.266644        -0.038861
 C        -0.632418         1.530985         0.549690
 C         0.331536         2.706215         0.736094
 C        -0.227564         3.392126         1.960705
 C        -1.153093         2.504738         2.766837
 C        -1.050212         1.156704         2.034313
 C        -1.856606         3.497017         1.820293
 O        -2.517020         2.967857         0.564778
 C        -1.936024         1.882153        -0.093161
 H         0.514133         0.020896         0.558974
 H         1.349842         2.216832         0.881306
 H         0.536072         3.277341        -0.165140
 H         0.378868         4.192428         2.508334
 H        -1.181296         2.375034         3.811076
 H        -0.239914         0.484899         2.421605
 H        -1.850393         0.458218         1.988846
 H        -2.617117         4.116906         2.154248
 H        -2.595366         1.002176         0.096854
 H        -1.932474         2.127903        -1.178651
