19
Iteration:  4978charge 0 multiplicity 1
 O        -0.212622         0.328298        -0.095343
 C        -0.720351         1.410848         0.620991
 C         0.171690         2.760167         0.456990
 C        -0.285934         3.543632         1.681899
 C        -0.914815         2.551741         2.708608
 C        -0.837622         1.177231         2.266687
 C        -1.783204         3.480805         1.741930
 O        -2.516900         2.904554         0.713300
 C        -2.164210         1.656131         0.203077
 H         0.759688         0.289173        -0.153505
 H         1.236911         2.495841         0.406951
 H        -0.144255         3.334160        -0.471524
 H         0.110391         4.516351         1.985058
 H        -0.884225         2.698479         3.762056
 H         0.080184         0.614204         2.736583
 H        -1.645917         0.609490         2.574608
 H        -2.430972         4.286963         2.151109
 H        -2.904974         0.876150         0.638247
 H        -2.322954         1.643095        -0.886002
