19
Iteration:  2519
 O        -0.121505         0.232983         0.022629
 C        -0.718712         1.391996         0.578693
 C         0.219731         2.782840         0.536034
 C        -0.302263         3.559900         1.793241
 C        -1.104903         2.457648         2.709856
 C        -0.844454         1.123400         2.052550
 C        -1.801637         3.453690         1.844764
 O        -2.400689         3.085424         0.619569
 C        -2.163127         1.772939         0.086686
 H        -0.402695        -0.509897         0.611408
 H         1.171409         2.487739         0.876653
 H         0.122994         3.348325        -0.463225
 H         0.150854         4.423985         2.243088
 H        -1.168290         2.503393         3.741852
 H        -0.021789         0.590030         2.518102
 H        -1.692688         0.446918         2.023209
 H        -2.234046         4.274315         2.286773
 H        -2.852436         1.036429         0.476149
 H        -2.354586         1.859132        -1.021505
