19
Iteration:  1165charge 0 multiplicity 1
 O        -0.194723         0.299667        -0.175007
 C        -0.638976         1.391730         0.661359
 C         0.323598         2.603073         0.806420
 C        -0.348091         3.524450         1.788055
 C        -1.170612         2.472204         2.701733
 C        -1.028064         1.063100         2.192954
 C        -1.837597         3.444934         1.805359
 O        -2.532571         3.067555         0.632225
 C        -1.902523         1.941123        -0.088011
 H         0.536372        -0.055372         0.323489
 H         1.404480         2.322847         0.980276
 H         0.387491         2.849938        -0.278591
 H         0.190259         4.436157         2.393898
 H        -1.334047         2.552617         3.823446
 H        -0.120131         0.490439         2.600354
 H        -1.800351         0.349058         2.307970
 H        -2.322794         4.378090         2.159630
 H        -2.674105         1.201602        -0.219129
 H        -1.640522         2.373172        -1.032767
