19
Iteration:  3099
 O        -0.192946         0.268056        -0.093833
 C        -0.693741         1.449216         0.611375
 C         0.267011         2.720150         0.572038
 C        -0.319808         3.537225         1.769587
 C        -0.974179         2.520961         2.639625
 C        -0.876057         1.120102         2.090961
 C        -1.799020         3.440727         1.834749
 O        -2.592998         2.984293         0.737290
 C        -2.090993         1.769429         0.086588
 H         0.563804         0.128593         0.495840
 H         1.391458         2.361960         0.826628
 H         0.168131         3.174475        -0.413394
 H         0.203293         4.431272         2.269718
 H        -1.110954         2.818485         3.687447
 H         0.073077         0.692054         2.361180
 H        -1.810627         0.592526         2.355201
 H        -2.326416         4.318438         2.333411
 H        -2.805216         0.978388         0.391340
 H        -2.164978         1.829263        -1.071754
