19
Iteration:  3489
 O        -0.107077         0.253213        -0.014041
 C        -0.690444         1.486638         0.587221
 C         0.217173         2.778502         0.428319
 C        -0.286853         3.594920         1.621536
 C        -0.874213         2.617045         2.632139
 C        -0.869946         1.223114         2.036794
 C        -1.767844         3.502424         1.841786
 O        -2.716138         2.654605         1.015748
 C        -2.082667         1.766666         0.059684
 H        -0.546884        -0.478848         0.432129
 H         1.318180         2.590079         0.633963
 H         0.240321         3.416430        -0.507750
 H         0.066137         4.539438         1.980617
 H        -0.809401         2.856551         3.707846
 H        -0.115822         0.575122         2.467918
 H        -1.864669         0.860935         2.159206
 H        -2.349228         4.415697         2.197538
 H        -2.586742         0.848855         0.174119
 H        -2.151539         2.266589        -0.960624
