19
Iteration:  1738
 O        -0.274244         0.294353        -0.188298
 C        -0.599984         1.416019         0.739545
 C         0.396533         2.557377         0.807004
 C        -0.291516         3.469737         1.862926
 C        -1.213315         2.476044         2.685200
 C        -1.218815         1.085968         2.080865
 C        -1.758726         3.541589         1.734746
 O        -2.518558         3.003992         0.673491
 C        -1.798128         1.943807        -0.054426
 H         0.608803         0.044020         0.078113
 H         1.495301         2.268707         1.167781
 H         0.334351         3.066558        -0.198284
 H         0.248698         4.309074         2.266169
 H        -1.016047         2.662283         3.722979
 H        -0.578728         0.450236         2.787881
 H        -2.185489         0.667841         1.990229
 H        -2.441584         4.313161         2.200366
 H        -2.581504         1.208829        -0.212137
 H        -1.627153         2.406208        -1.045507
