19
Iteration:  1658
 O        -0.395548         0.281154        -0.209772
 C        -0.590658         1.360388         0.699767
 C         0.395297         2.596592         0.850443
 C        -0.385099         3.431713         1.884697
 C        -1.159973         2.512027         2.712494
 C        -0.977859         1.105255         2.134298
 C        -1.918396         3.453552         1.808620
 O        -2.474822         3.063815         0.552913
 C        -1.801279         1.958573        -0.071800
 H         0.357367        -0.223593         0.060961
 H         1.521254         2.429527         1.175122
 H         0.604909         3.091635        -0.141793
 H         0.089794         4.376946         2.265970
 H        -1.257546         2.638285         3.846240
 H        -0.205706         0.691724         2.732296
 H        -1.873748         0.538166         2.410889
 H        -2.310535         4.459764         2.034323
 H        -2.531618         1.118357        -0.301160
 H        -1.454188         2.399214        -1.008653
