19
Iteration:  1488charge 0 multiplicity 1
 O        -0.153399         0.329777        -0.069101
 C        -0.691370         1.431797         0.615809
 C         0.228002         2.603479         0.762738
 C        -0.207183         3.447426         1.852688
 C        -1.091458         2.502173         2.716275
 C        -1.223313         1.114410         2.136064
 C        -1.770074         3.490496         1.781542
 O        -2.529042         2.908072         0.707476
 C        -1.855150         1.941898        -0.201034
 H         0.703451         0.156916         0.368140
 H         1.272579         2.323783         0.997439
 H         0.428039         3.172659        -0.168559
 H         0.472934         4.261915         2.327004
 H        -1.426455         2.741793         3.770095
 H        -0.642001         0.341788         2.501879
 H        -2.309260         0.902329         2.148624
 H        -2.304131         4.219263         2.305579
 H        -2.722056         1.304416        -0.476566
 H        -1.459751         2.442123        -1.162308
