19
Iteration:  4742charge 0 multiplicity 1
 O        -0.038337         0.404255        -0.164653
 C        -0.712156         1.363258         0.661836
 C         0.153694         2.541423         0.501189
 C        -0.266340         3.431132         1.655201
 C        -1.065381         2.540309         2.650444
 C        -0.676908         1.218935         2.208739
 C        -1.814137         3.522638         1.737054
 O        -2.704878         3.082678         0.768319
 C        -2.183110         1.720867         0.222344
 H         0.162571        -0.340452         0.415222
 H         1.185531         2.137544         0.690200
 H         0.135935         2.990083        -0.489516
 H         0.312296         4.283118         2.034736
 H        -1.223893         2.627360         3.666951
 H         0.319008         1.028916         2.615243
 H        -1.288337         0.341005         2.605619
 H        -2.145606         4.413369         2.183569
 H        -2.920661         0.949326         0.642737
 H        -2.109423         1.784097        -0.877480
