19
Iteration:  4743charge 0 multiplicity 1
 O        -0.031423         0.408423        -0.164708
 C        -0.715974         1.363501         0.667061
 C         0.150925         2.543744         0.501909
 C        -0.265577         3.423043         1.654260
 C        -1.071997         2.549332         2.646289
 C        -0.680856         1.213473         2.210407
 C        -1.806208         3.521141         1.737336
 O        -2.696046         3.079253         0.770474
 C        -2.191921         1.723309         0.212445
 H         0.134470        -0.341949         0.412622
 H         1.209055         2.138676         0.690930
 H         0.143340         2.982829        -0.524202
 H         0.277008         4.287516         2.009345
 H        -1.210696         2.618746         3.697322
 H         0.334381         1.026332         2.624647
 H        -1.262835         0.388593         2.611174
 H        -2.164313         4.392857         2.225583
 H        -2.934054         0.948679         0.654694
 H        -2.143094         1.772461        -0.863557
