19
Iteration:  4688
 O        -0.350662         0.207037        -0.049878
 C        -0.705842         1.451682         0.664784
 C         0.161834         2.712546         0.543333
 C        -0.281947         3.567407         1.735747
 C        -0.839486         2.648402         2.786145
 C        -0.758417         1.181762         2.144790
 C        -1.880488         3.460004         1.852516
 O        -2.608318         2.861012         0.714688
 C        -1.996681         1.772178        -0.019436
 H         0.612823         0.197013        -0.198916
 H         1.315429         2.548711         0.688263
 H        -0.084183         3.148168        -0.459590
 H         0.152273         4.570828         1.906329
 H        -0.706287         2.908181         3.783579
 H         0.141174         0.587612         2.418154
 H        -1.629723         0.588919         2.302269
 H        -2.573552         4.131580         2.265156
 H        -2.736479         0.883459         0.046407
 H        -1.776755         1.872191        -1.081829
