19
Iteration:  3022charge 0 multiplicity 1
 O        -0.130162         0.274891         0.001118
 C        -0.675269         1.486096         0.576810
 C         0.364713         2.531211         0.630750
 C        -0.297085         3.542781         1.609186
 C        -0.958777         2.612461         2.650363
 C        -1.050233         1.214873         2.084802
 C        -1.793089         3.470736         1.792699
 O        -2.735566         2.725702         0.973757
 C        -1.994817         1.974513        -0.017879
 H         0.144711         0.445592        -0.929704
 H         1.282469         2.021487         1.053907
 H         0.724616         2.964345        -0.254517
 H         0.276179         4.504754         1.772887
 H        -0.734325         2.706643         3.743201
 H        -0.209521         0.646206         2.479628
 H        -1.990674         0.707013         2.338265
 H        -2.394326         4.278078         2.151159
 H        -2.693150         1.170935        -0.125867
 H        -1.937814         2.601351        -0.939134
