19
Iteration:  4652charge 0 multiplicity 1
 O        -0.073326         0.285189        -0.069928
 C        -0.666943         1.400337         0.653837
 C         0.309918         2.467240         0.489084
 C        -0.315728         3.527377         1.580172
 C        -1.066679         2.574358         2.689019
 C        -0.840000         1.192648         2.117889
 C        -1.838726         3.590022         1.794086
 O        -2.760064         2.912867         0.912063
 C        -2.085603         1.856273         0.139264
 H         0.846132         0.613979        -0.188373
 H         1.368225         2.113203         0.750299
 H         0.392217         2.756628        -0.538915
 H         0.239190         4.490832         1.580800
 H        -0.841805         2.764300         3.783617
 H         0.026833         0.783680         2.536340
 H        -1.640484         0.282591         2.137676
 H        -2.339641         4.486020         2.339186
 H        -2.800746         1.008465         0.321787
 H        -2.112965         2.286441        -0.953507
