19
Iteration:   239charge 0 multiplicity 1
 O        -0.182640         0.293782        -0.132545
 C        -0.661246         1.400568         0.664204
 C         0.333536         2.530643         0.848817
 C        -0.274789         3.471033         1.864119
 C        -1.151114         2.477141         2.646785
 C        -1.012424         1.010649         2.117163
 C        -1.863588         3.458379         1.738154
 O        -2.514852         3.217098         0.572349
 C        -2.002280         1.922649        -0.032518
 H         0.658943        -0.028956         0.173991
 H         1.247908         2.139347         1.245110
 H         0.712247         2.996967         0.012543
 H         0.169381         4.305808         2.219410
 H        -1.266574         2.683409         3.766944
 H        -0.093520         0.598872         2.547302
 H        -1.824294         0.373712         2.323486
 H        -2.542057         4.210459         2.280951
 H        -2.800547         1.128292         0.101049
 H        -1.754714         2.230682        -1.083849
