19
Iteration:  1123
 O        -0.144432         0.284079        -0.065134
 C        -0.657895         1.392722         0.648700
 C         0.372518         2.692105         0.730483
 C        -0.257414         3.409929         1.924451
 C        -1.168856         2.514748         2.653514
 C        -1.031762         1.089531         2.048518
 C        -1.833324         3.405135         1.802898
 O        -2.567418         3.109038         0.625238
 C        -1.989042         1.863656        -0.106775
 H         0.521989        -0.226093         0.461615
 H         1.438745         2.441604         0.885992
 H         0.206903         3.425450        -0.103035
 H         0.211357         4.353223         2.507785
 H        -1.413046         2.584877         3.790023
 H        -0.271115         0.479037         2.640609
 H        -2.032368         0.659117         2.200520
 H        -2.183734         4.381176         2.233699
 H        -2.759072         1.103658        -0.099083
 H        -1.772969         2.152800        -1.113693
