19
Iteration:  3419
 O        -0.303061         0.225838        -0.086271
 C        -0.613139         1.486477         0.612637
 C         0.299129         2.699253         0.553354
 C        -0.350007         3.542096         1.657737
 C        -1.017731         2.591495         2.724532
 C        -0.644587         1.260627         2.143279
 C        -1.885451         3.431257         1.779082
 O        -2.707901         2.909520         0.814842
 C        -2.019468         1.654590         0.142929
 H         0.029211         0.624508        -0.912618
 H         1.298696         2.234945         0.763058
 H         0.408141         3.099715        -0.447391
 H         0.057225         4.568645         1.903289
 H        -0.927368         2.769585         3.819180
 H         0.464983         0.958437         2.409629
 H        -1.444288         0.457172         2.449727
 H        -2.277189         4.324107         2.249121
 H        -2.731684         0.865739         0.481230
 H        -2.169318         1.992855        -0.933473
