19
Iteration:  1098charge 0 multiplicity 1
 O        -0.123425         0.382582        -0.169757
 C        -0.705397         1.407034         0.675109
 C         0.253746         2.485928         0.713764
 C        -0.395631         3.502694         1.772479
 C        -1.209950         2.491561         2.767592
 C        -1.018176         1.001732         2.136600
 C        -1.885922         3.541742         1.845772
 O        -2.458387         3.090133         0.616522
 C        -1.866404         1.908209        -0.070643
 H         0.489682        -0.176676         0.407312
 H         1.222137         2.189811         1.224598
 H         0.464811         2.905235        -0.273372
 H         0.384792         4.175214         2.376084
 H        -1.096840         2.707041         3.780483
 H        -0.053212         0.540481         2.587284
 H        -1.827787         0.365263         2.376853
 H        -2.358499         4.414939         2.136365
 H        -2.574240         1.119637        -0.013542
 H        -1.646775         2.195110        -1.053522
