19
Iteration:   215
 O        -0.084987         0.293861        -0.076005
 C        -0.711638         1.425401         0.620292
 C         0.254000         2.596608         0.714895
 C        -0.278827         3.374498         1.895093
 C        -1.257810         2.436367         2.738195
 C        -1.048199         1.085951         2.047331
 C        -1.750900         3.519100         1.821886
 O        -2.427182         3.184736         0.559306
 C        -2.045019         1.851303        -0.026960
 H         0.662495         0.025913         0.537867
 H         1.271392         2.320378         0.798554
 H         0.326964         3.270190        -0.197588
 H         0.221312         4.162786         2.442476
 H        -1.241283         2.538469         3.813653
 H        -0.303881         0.554848         2.564354
 H        -1.987611         0.462870         2.108587
 H        -2.231328         4.416360         2.146743
 H        -2.868805         1.137002         0.168431
 H        -1.823618         2.045781        -1.057697
