19
Iteration:   739charge 0 multiplicity 1
 O        -0.251310         0.334460        -0.081361
 C        -0.681766         1.425987         0.631582
 C         0.382502         2.622370         0.856627
 C        -0.308264         3.466317         1.900344
 C        -1.143898         2.444502         2.634635
 C        -1.001620         1.019697         2.035317
 C        -1.868554         3.504458         1.745032
 O        -2.515453         3.101918         0.574148
 C        -1.942277         1.909684        -0.051344
 H         0.526502         0.002136         0.382938
 H         1.153042         1.957854         1.379889
 H         0.813727         2.917708        -0.094527
 H         0.064783         4.281717         2.408706
 H        -1.120656         2.447392         3.758015
 H         0.009743         0.634002         2.397212
 H        -1.853335         0.362249         2.247969
 H        -2.212572         4.428392         2.346134
 H        -2.773194         1.191096         0.129155
 H        -1.812321         2.145461        -1.083126
