19
Iteration:   483charge 0 multiplicity 1
 O        -0.214913         0.312232        -0.118014
 C        -0.675344         1.419217         0.662334
 C         0.357095         2.514316         0.819210
 C        -0.337504         3.500065         1.785720
 C        -1.324055         2.448603         2.702306
 C        -0.951371         0.967860         2.091002
 C        -1.778465         3.521748         1.797656
 O        -2.477383         3.131839         0.565207
 C        -1.962554         2.001269        -0.040866
 H         0.419421        -0.169986         0.437031
 H         1.275738         2.083907         1.403509
 H         0.617965         3.080100        -0.086886
 H         0.371680         4.191956         2.477561
 H        -1.462110         2.500960         3.790099
 H         0.073690         0.864769         2.556175
 H        -1.596804         0.162076         2.177891
 H        -2.275802         4.451583         2.201180
 H        -2.678425         1.090686         0.000052
 H        -1.840918         2.227400        -1.137084
