19
Iteration:   419charge 0 multiplicity 1
 O        -0.147787         0.295292        -0.085801
 C        -0.691327         1.405210         0.604213
 C         0.218200         2.592831         0.743254
 C        -0.263786         3.372928         1.911237
 C        -1.222491         2.436840         2.682998
 C        -1.049932         1.132231         2.070089
 C        -1.825495         3.529085         1.828094
 O        -2.411546         3.134396         0.542794
 C        -1.945297         1.915501         0.018949
 H         0.728144         0.067817         0.369373
 H         1.193278         2.125095         0.945324
 H         0.195907         3.066853        -0.200885
 H         0.536199         3.933139         2.524841
 H        -1.457686         2.547093         3.735484
 H        -0.260306         0.484267         2.546555
 H        -1.853618         0.412819         2.027662
 H        -2.438693         4.421241         2.093653
 H        -2.824843         1.238774         0.188753
 H        -1.738406         2.277049        -1.060984
