19
Iteration:   786charge 0 multiplicity 1
 O        -0.189298         0.287413        -0.187736
 C        -0.695454         1.359448         0.629857
 C         0.302424         2.679076         0.779412
 C        -0.293642         3.438437         1.856040
 C        -1.189623         2.493807         2.802942
 C        -1.166314         1.137902         2.120382
 C        -1.802713         3.578293         1.824800
 O        -2.476298         2.931453         0.647000
 C        -1.842895         1.903976        -0.129513
 H         0.576525         0.020394         0.324752
 H         1.305617         2.226362         1.016822
 H         0.324061         3.294688        -0.207412
 H         0.437520         4.133474         2.387283
 H        -1.139652         2.691163         3.835561
 H        -0.419709         0.540617         2.643953
 H        -2.196308         0.568875         2.050722
 H        -2.199728         4.415082         2.250942
 H        -2.535579         1.117920        -0.443946
 H        -1.481240         2.453577        -1.023876
