19
Iteration:  3149charge 0 multiplicity 1
 O        -0.108228         0.347434        -0.100560
 C        -0.676069         1.369741         0.723483
 C         0.147895         2.725068         0.549584
 C        -0.264081         3.513548         1.827703
 C        -1.074120         2.494196         2.649244
 C        -0.767250         1.115725         2.173052
 C        -1.828052         3.482036         1.794345
 O        -2.466212         3.036958         0.588554
 C        -2.157956         1.717123         0.190778
 H        -0.763876         0.120895        -0.794640
 H         1.128748         2.401052         0.601646
 H        -0.154254         3.174390        -0.424215
 H         0.362120         4.434775         2.114433
 H        -1.119090         2.692163         3.775957
 H         0.229145         0.830875         2.650903
 H        -1.561854         0.366115         2.282080
 H        -2.516009         4.194405         2.257038
 H        -2.951122         0.993015         0.522357
 H        -2.246513         1.694500        -0.895985
