19
Iteration:  2881
 O        -0.078725         0.260806         0.034528
 C        -0.767194         1.332427         0.634390
 C         0.161498         2.667999         0.582307
 C        -0.304428         3.488881         1.730784
 C        -0.985312         2.527181         2.664583
 C        -0.814766         1.107036         2.138201
 C        -1.845119         3.455444         1.863304
 O        -2.549256         3.059520         0.687481
 C        -2.142946         1.874435         0.045401
 H        -0.162719         0.404866        -0.941073
 H         1.186500         2.373743         0.769551
 H         0.262275         3.080071        -0.461812
 H         0.306658         4.311147         2.054673
 H        -0.956767         2.756159         3.716384
 H         0.224688         0.781232         2.369343
 H        -1.497638         0.303238         2.536248
 H        -2.282369         4.308957         2.159611
 H        -3.007312         1.166740         0.142727
 H        -1.879127         2.004394        -1.000972
