19
Iteration:  1979
 O        -0.327177         0.318348        -0.075157
 C        -0.661212         1.513860         0.623044
 C         0.395841         2.568861         0.802690
 C        -0.239858         3.439826         1.929911
 C        -1.177406         2.499385         2.766220
 C        -1.083414         1.172619         2.108400
 C        -1.833500         3.448674         1.765625
 O        -2.521281         2.950548         0.604319
 C        -1.849305         1.957028        -0.197953
 H         0.369015        -0.286415         0.315368
 H         1.311031         2.185739         1.045778
 H         0.391722         3.118130        -0.153895
 H         0.445009         4.120559         2.419179
 H        -1.336082         2.564424         3.822297
 H        -0.367600         0.443996         2.560466
 H        -1.982742         0.618774         2.156866
 H        -2.252738         4.353376         2.128383
 H        -2.457394         1.055131        -0.493864
 H        -1.398336         2.383301        -1.050707
