19
Iteration:    15charge 0 multiplicity 1
 O        -0.330476         0.336615        -0.253263
 C        -0.657046         1.380335         0.772233
 C         0.429261         2.555268         0.837104
 C        -0.309575         3.618211         1.841574
 C        -1.097260         2.507019         2.737644
 C        -1.109470         1.034814         2.207210
 C        -1.820818         3.426682         1.755562
 O        -2.501650         3.047275         0.552902
 C        -1.834771         1.948918        -0.078872
 H         0.485758        -0.117612         0.067611
 H         1.356015         2.331651         1.218217
 H         0.398970         2.817372        -0.306703
 H         0.106926         4.423247         2.286008
 H        -1.236186         2.810246         3.803657
 H        -0.369380         0.406242         2.638342
 H        -2.137835         0.376312         2.276560
 H        -2.465821         3.988516         2.461985
 H        -2.664454         1.063312        -0.156328
 H        -1.597349         2.169653        -1.167346
