19
Iteration:  1436charge 0 multiplicity 1
 O        -0.238322         0.306132        -0.102023
 C        -0.656567         1.434936         0.681973
 C         0.400252         2.501400         0.834354
 C        -0.289346         3.490352         1.834068
 C        -1.169334         2.453865         2.690452
 C        -0.949082         1.078198         2.088316
 C        -1.869967         3.503873         1.730534
 O        -2.609168         3.050240         0.603760
 C        -1.949460         1.990180        -0.065940
 H         0.670181         0.178103         0.187142
 H         1.287346         1.992711         1.303370
 H         0.731437         2.972796        -0.107747
 H         0.049425         4.367806         2.435730
 H        -1.237461         2.414579         3.732911
 H        -0.031736         0.679738         2.536030
 H        -1.832528         0.333721         2.235833
 H        -2.277909         4.410582         2.141714
 H        -2.703986         1.256407        -0.264320
 H        -1.535376         2.319083        -0.965634
