19
Iteration:   214
 O        -0.085097         0.296064        -0.073009
 C        -0.708443         1.428643         0.618760
 C         0.246525         2.597600         0.714140
 C        -0.270208         3.367586         1.895246
 C        -1.262551         2.440648         2.743952
 C        -1.056437         1.089658         2.045153
 C        -1.755221         3.511938         1.816405
 O        -2.419634         3.188295         0.565435
 C        -2.043448         1.845061        -0.026133
 H         0.653805         0.007114         0.511172
 H         1.283638         2.315992         0.786527
 H         0.305153         3.305990        -0.221372
 H         0.223375         4.221748         2.429342
 H        -1.237820         2.535518         3.798041
 H        -0.304043         0.563268         2.548595
 H        -1.997367         0.423769         2.103771
 H        -2.220834         4.395079         2.135090
 H        -2.841616         1.129078         0.156573
 H        -1.821038         2.042016        -1.028947
