19
Iteration:   392charge 0 multiplicity 1
 O        -0.235779         0.268046        -0.121383
 C        -0.672391         1.372126         0.650421
 C         0.423349         2.624474         0.876860
 C        -0.345638         3.420372         1.820378
 C        -1.166514         2.386065         2.707013
 C        -0.984195         1.079762         2.179141
 C        -1.786350         3.436583         1.747092
 O        -2.511309         3.177733         0.542816
 C        -2.019803         1.993138        -0.067143
 H         0.725271         0.046217         0.097250
 H         1.219863         2.084364         1.417911
 H         0.668789         3.053295        -0.156486
 H        -0.036684         4.374574         2.259893
 H        -1.431997         2.544295         3.784359
 H        -0.042232         0.670214         2.568122
 H        -1.828519         0.307674         2.248928
 H        -2.228179         4.390602         2.068381
 H        -2.942841         1.364636        -0.174585
 H        -1.767049         2.342095        -1.034047
