19
Iteration:  4510
 O        -0.136392         0.276998        -0.106600
 C        -0.686117         1.354257         0.709780
 C         0.110451         2.644956         0.470154
 C        -0.318888         3.515399         1.704726
 C        -0.999066         2.644775         2.691332
 C        -0.746324         1.138438         2.231042
 C        -1.826890         3.562116         1.763052
 O        -2.569559         2.940490         0.762888
 C        -2.034431         1.757863         0.155214
 H        -0.639890         0.239433        -0.951570
 H         1.251972         2.378617         0.498881
 H        -0.195817         3.046526        -0.488320
 H         0.229458         4.330869         2.058018
 H        -1.088796         2.679441         3.797219
 H         0.183311         0.711807         2.614360
 H        -1.605492         0.434462         2.509632
 H        -2.342056         4.438231         2.093063
 H        -2.786848         0.926041         0.336511
 H        -1.921512         1.978473        -0.870288
