19
Iteration:  1778charge 0 multiplicity 1
 O        -0.311142         0.288999        -0.054456
 C        -0.717748         1.417026         0.624981
 C         0.343686         2.513870         0.867063
 C        -0.334719         3.432116         1.808499
 C        -1.262578         2.382760         2.753662
 C        -0.892803         1.074779         2.167837
 C        -1.818458         3.426548         1.796184
 O        -2.426950         3.205688         0.504011
 C        -1.947938         2.044565        -0.148847
 H         0.586175        -0.061643         0.193627
 H         1.274881         2.275792         1.192117
 H         0.556852         2.952819        -0.115729
 H         0.116992         4.311275         2.404705
 H        -1.357389         2.612856         3.808822
 H         0.120034         0.892483         2.338992
 H        -1.534540         0.124741         2.384443
 H        -2.373820         4.165536         2.220406
 H        -2.650161         1.120539        -0.111334
 H        -1.603837         2.255745        -1.153841
