19
Iteration:  3739
 O        -0.235996         0.233395         0.045101
 C        -0.589231         1.426610         0.587385
 C         0.200451         2.838839         0.386136
 C        -0.338257         3.662492         1.519366
 C        -0.904458         2.629096         2.652122
 C        -0.774975         1.204470         2.073717
 C        -1.839229         3.447653         1.842957
 O        -2.683816         2.739244         0.985786
 C        -2.066090         1.665161         0.161142
 H         0.311500         0.445438        -0.756674
 H         1.230824         2.460135         0.605470
 H         0.014349         3.410736        -0.526709
 H         0.088103         4.619600         1.790572
 H        -0.465465         2.831478         3.666460
 H         0.139332         0.710701         2.548009
 H        -1.728696         0.620486         2.297145
 H        -2.347317         4.170037         2.340363
 H        -2.638183         0.683712         0.486651
 H        -2.383222         2.041489        -0.812398
