19
Iteration:   438charge 0 multiplicity 1
 O        -0.194895         0.343818        -0.137790
 C        -0.663610         1.418433         0.626444
 C         0.314562         2.720254         0.721663
 C        -0.268959         3.419531         1.932066
 C        -1.255935         2.410841         2.748541
 C        -1.176157         0.999391         2.168296
 C        -1.742118         3.484883         1.785172
 O        -2.349914         3.144875         0.558150
 C        -1.940637         1.789022        -0.058719
 H         0.524157        -0.070818         0.415967
 H         1.443992         2.497436         0.708962
 H        -0.077404         3.265506        -0.150670
 H         0.256456         4.473928         2.266100
 H        -1.245937         2.682129         3.756245
 H        -0.389477         0.344822         2.668293
 H        -2.153565         0.635304         2.135435
 H        -2.238833         4.310021         2.155821
 H        -2.890431         1.191114         0.138918
 H        -1.942857         2.003418        -1.113915
