19
Iteration:  3181charge 0 multiplicity 1
 O        -0.366696         0.188684        -0.089587
 C        -0.601175         1.414618         0.681763
 C         0.328988         2.768403         0.657786
 C        -0.386174         3.552821         1.756762
 C        -1.033285         2.500606         2.644830
 C        -0.671514         1.117622         2.099747
 C        -1.914030         3.476285         1.801210
 O        -2.550714         2.996158         0.654562
 C        -2.102589         1.799755         0.134699
 H         0.437165         0.467860        -0.589091
 H         1.274169         2.547003         0.988941
 H         0.389273         3.207045        -0.373212
 H         0.132157         4.523922         1.934904
 H        -0.884674         2.680262         3.760953
 H         0.331672         0.870964         2.519647
 H        -1.258781         0.217836         2.328229
 H        -2.547620         4.214886         2.311738
 H        -2.836983         1.014287         0.478644
 H        -2.043108         1.791401        -0.927446
