19
Iteration:  2631charge 0 multiplicity 1
 O        -0.098529         0.151594         0.049165
 C        -0.670578         1.412283         0.588777
 C         0.258979         2.668799         0.592017
 C        -0.279031         3.554921         1.685871
 C        -0.981272         2.557577         2.675459
 C        -0.888978         1.137757         2.071028
 C        -1.818639         3.505741         1.789572
 O        -2.693262         2.891031         0.873319
 C        -2.041876         1.995481        -0.088000
 H        -0.565119        -0.530449         0.537275
 H         1.275729         2.295654         0.892175
 H         0.262843         3.141273        -0.488824
 H         0.270814         4.475701         2.021190
 H        -0.949425         2.672714         3.835656
 H        -0.065061         0.519354         2.362953
 H        -1.793250         0.499277         2.060667
 H        -2.520773         4.240679         2.402718
 H        -2.878660         1.375946        -0.463855
 H        -1.541944         2.690374        -0.895402
