19
Iteration:   731charge 0 multiplicity 1
 O        -0.273969         0.312762        -0.134196
 C        -0.671247         1.418285         0.625001
 C         0.368232         2.563203         0.862357
 C        -0.352233         3.454944         1.915970
 C        -1.166475         2.462765         2.694360
 C        -0.947725         1.138010         2.054310
 C        -1.844539         3.466882         1.761689
 O        -2.456977         3.099389         0.566215
 C        -1.953933         1.926040        -0.030009
 H         0.481614        -0.129307         0.231003
 H         1.336338         2.080571         1.290649
 H         0.636791         3.126465        -0.130011
 H         0.186202         4.287453         2.453083
 H        -1.309725         2.653030         3.763398
 H        -0.147111         0.557033         2.526029
 H        -1.821848         0.354581         2.142777
 H        -2.531713         4.284391         2.188987
 H        -2.606353         1.011994        -0.007486
 H        -1.948820         2.084101        -1.188273
