19
Iteration:    23
 O        -0.358931         0.347499        -0.277621
 C        -0.639785         1.380914         0.768034
 C         0.407713         2.572422         0.860420
 C        -0.332358         3.592992         1.805588
 C        -1.084148         2.515286         2.728101
 C        -1.083847         1.024949         2.235362
 C        -1.852906         3.424636         1.778629
 O        -2.494414         3.035363         0.542661
 C        -1.831240         1.924407        -0.061432
 H         0.459056        -0.173998        -0.041838
 H         1.352872         2.244115         1.273578
 H         0.610640         2.979769        -0.137942
 H         0.204572         4.409468         2.192562
 H        -1.285530         2.638793         3.785291
 H        -0.401059         0.334766         2.720845
 H        -2.105340         0.685358         2.346620
 H        -2.415871         4.190863         2.281839
 H        -2.539475         1.142896        -0.220618
 H        -1.465094         2.257933        -1.032567
