19
Iteration:  1885
 O        -0.419452         0.201839        -0.132307
 C        -0.594873         1.444143         0.657754
 C         0.376381         2.567761         0.845248
 C        -0.302880         3.414429         1.896851
 C        -1.228179         2.496263         2.690675
 C        -0.969501         1.188556         2.089430
 C        -1.912165         3.465569         1.780217
 O        -2.479214         3.075625         0.603755
 C        -1.761231         1.986778        -0.085391
 H         0.479039        -0.125394         0.019873
 H         1.439669         2.308505         1.246292
 H         0.414047         3.085997        -0.112881
 H         0.251589         4.244578         2.380179
 H        -1.439867         2.477364         3.750234
 H        -0.102116         0.743323         2.616832
 H        -1.700927         0.328972         2.195337
 H        -2.579496         4.193473         1.995008
 H        -2.404192         1.151650        -0.247480
 H        -1.511057         2.450545        -1.093107
