19
Iteration:  4980charge 0 multiplicity 1
 O        -0.195608         0.315762        -0.094964
 C        -0.713474         1.409750         0.626422
 C         0.153160         2.746409         0.461322
 C        -0.294824         3.541633         1.679648
 C        -0.897885         2.563109         2.712838
 C        -0.834567         1.164233         2.254967
 C        -1.789728         3.475508         1.739574
 O        -2.522768         2.928687         0.708559
 C        -2.178002         1.649882         0.217922
 H         0.765419         0.285725        -0.169991
 H         1.225500         2.490390         0.413445
 H        -0.100679         3.343676        -0.460633
 H         0.077626         4.531276         1.941870
 H        -0.885094         2.732981         3.831057
 H         0.039341         0.669660         2.661914
 H        -1.663918         0.557992         2.517986
 H        -2.421990         4.312274         2.206863
 H        -2.864245         0.907211         0.608760
 H        -2.246262         1.706484        -0.887527
