19
Iteration:   841
 O        -0.161300         0.247687        -0.164980
 C        -0.672517         1.351700         0.650404
 C         0.349987         2.527640         0.869008
 C        -0.377840         3.475066         1.818986
 C        -1.237082         2.469291         2.650581
 C        -0.935453         1.034912         2.191064
 C        -1.832903         3.571956         1.737510
 O        -2.570054         3.047378         0.685701
 C        -1.927420         2.074195        -0.144065
 H         0.686921         0.124186         0.335919
 H         1.298802         2.073678         1.226766
 H         0.717434         2.964576        -0.122154
 H         0.242026         4.385476         2.136023
 H        -1.468288         2.547390         3.695879
 H        -0.063473         0.636619         2.714754
 H        -1.753575         0.209744         2.364819
 H        -2.248171         4.368819         2.177413
 H        -2.676408         1.337381        -0.358634
 H        -1.675223         2.631668        -0.995588
