19
Iteration:  3655
 O        -0.334877         0.290767        -0.189574
 C        -0.605388         1.425670         0.611479
 C         0.377383         2.809527         0.475011
 C        -0.296419         3.652953         1.707194
 C        -0.939970         2.674800         2.649025
 C        -0.702291         1.213153         2.154249
 C        -1.864576         3.471677         1.747431
 O        -2.740163         2.759915         0.866419
 C        -2.164508         1.597193         0.254647
 H         0.440083        -0.187122         0.135857
 H         1.397360         2.532952         0.586442
 H         0.438791         3.270473        -0.524798
 H         0.273078         4.474394         2.178030
 H        -0.901362         2.777427         3.763333
 H         0.330024         0.904120         2.465904
 H        -1.452753         0.527634         2.415267
 H        -2.330757         4.319126         2.098936
 H        -2.566669         0.657564         0.524533
 H        -2.325098         1.828165        -0.867723
