19
Iteration:   375
 O        -0.357821         0.333886        -0.160514
 C        -0.646725         1.441800         0.699922
 C         0.387803         2.512875         0.842669
 C        -0.318500         3.467649         1.871056
 C        -1.208814         2.525237         2.689156
 C        -0.970878         1.047557         2.105018
 C        -1.837315         3.487708         1.763057
 O        -2.522816         3.068712         0.575082
 C        -1.841436         1.935276        -0.074814
 H         0.587902         0.040334         0.007233
 H         1.332046         2.168352         1.315806
 H         0.615552         3.048878        -0.033961
 H         0.283873         4.342951         2.357849
 H        -1.316495         2.656791         3.722031
 H        -0.227995         0.393966         2.635833
 H        -1.847890         0.431120         2.182709
 H        -2.448121         4.196736         2.274046
 H        -2.468665         1.038258         0.023805
 H        -1.432314         2.287874        -1.085766
