19
Iteration:   704
 O        -0.264476         0.319205        -0.248899
 C        -0.674542         1.325573         0.698704
 C         0.294554         2.714610         0.704153
 C        -0.321704         3.414862         1.953288
 C        -1.253009         2.458584         2.737856
 C        -1.056963         1.043473         2.244132
 C        -1.802435         3.497682         1.781007
 O        -2.381224         3.134837         0.539502
 C        -1.862094         1.878810        -0.022187
 H         0.411322        -0.293639         0.032852
 H         1.358186         2.405478         0.777408
 H         0.153270         3.240761        -0.196526
 H         0.041498         4.330280         2.438347
 H        -1.293378         2.692106         3.793753
 H        -0.187580         0.597009         2.833298
 H        -1.785120         0.321742         2.374359
 H        -2.290506         4.459591         1.947159
 H        -2.544517         0.994456        -0.014992
 H        -1.650764         2.047883        -1.012118
