19
Iteration:  1100charge 0 multiplicity 1
 O        -0.112339         0.364936        -0.161116
 C        -0.695659         1.431178         0.659650
 C         0.243545         2.487858         0.703318
 C        -0.407922         3.507397         1.782534
 C        -1.207762         2.449513         2.771188
 C        -1.027076         1.005771         2.144615
 C        -1.862713         3.551566         1.812747
 O        -2.456923         3.077579         0.615225
 C        -1.876642         1.933317        -0.045695
 H         0.477987        -0.166236         0.421725
 H         1.187722         2.199672         1.223691
 H         0.399178         2.927904        -0.302339
 H         0.437811         4.232674         2.348723
 H        -1.109907         2.735283         3.855215
 H        -0.056821         0.553852         2.607704
 H        -1.867927         0.353657         2.309174
 H        -2.354001         4.422109         2.178648
 H        -2.563837         1.122761        -0.030723
 H        -1.667950         2.203668        -1.033078
