19
Iteration:  4400
 O        -0.092882         0.260648         0.042497
 C        -0.693818         1.439020         0.590578
 C         0.251496         2.673323         0.512251
 C        -0.322145         3.570185         1.533840
 C        -0.926797         2.639707         2.649470
 C        -0.788260         1.177994         2.081730
 C        -1.822253         3.441339         1.824677
 O        -2.663293         2.900966         0.871067
 C        -2.170558         1.739168         0.184942
 H        -0.196289         0.236828        -0.931849
 H         1.281919         2.316168         0.800614
 H         0.403439         3.178399        -0.413078
 H         0.122311         4.546456         1.750418
 H        -1.035146         2.810155         3.697378
 H         0.121159         0.666361         2.391028
 H        -1.747630         0.609391         2.343185
 H        -2.336396         4.227914         2.365195
 H        -2.750165         0.763024         0.486897
 H        -2.326363         1.946214        -0.831548
