19
Iteration:  2209
 O        -0.225549         0.189842         0.071638
 C        -0.630388         1.470244         0.615217
 C         0.364606         2.623825         0.762815
 C        -0.308041         3.469224         1.828671
 C        -1.183786         2.487421         2.642925
 C        -1.031308         1.094799         2.010020
 C        -1.782619         3.527900         1.764224
 O        -2.529463         3.048030         0.665794
 C        -1.927016         1.957317        -0.049214
 H        -0.680566         0.025820        -0.792504
 H         1.278368         2.157611         1.244344
 H         0.628123         3.005868        -0.244578
 H         0.289510         4.295488         2.344155
 H        -1.163978         2.625390         3.747095
 H        -0.083307         0.647186         2.373809
 H        -1.670953         0.255707         2.174367
 H        -2.392706         4.226348         2.388995
 H        -2.650330         1.095310        -0.051006
 H        -1.723386         2.351579        -1.080142
