19
Iteration:   869charge 0 multiplicity 1
 O        -0.226411         0.386042        -0.146595
 C        -0.634366         1.463251         0.658686
 C         0.340876         2.579872         0.771688
 C        -0.325229         3.399720         1.869604
 C        -1.151183         2.503462         2.757666
 C        -1.100651         1.115441         2.194982
 C        -1.827895         3.477952         1.798207
 O        -2.509025         2.992045         0.594224
 C        -1.858579         1.894449        -0.148578
 H         0.627764         0.049161         0.260460
 H         1.306583         2.117881         1.034048
 H         0.388612         3.041424        -0.194904
 H         0.232194         4.187910         2.307854
 H        -1.155075         2.580409         3.857513
 H        -0.410895         0.427696         2.737895
 H        -2.026878         0.642866         2.062584
 H        -2.380026         4.437750         2.178205
 H        -2.589701         1.013135        -0.206821
 H        -1.775752         2.304918        -1.235816
