19
Iteration:   323charge 0 multiplicity 1
 O        -0.117639         0.320345        -0.011180
 C        -0.723200         1.421772         0.635290
 C         0.397111         2.492801         0.759826
 C        -0.271039         3.424178         1.796197
 C        -1.091394         2.467811         2.662303
 C        -1.171354         1.154994         1.990461
 C        -1.814182         3.478548         1.828283
 O        -2.605154         3.001472         0.706352
 C        -1.925028         2.051936        -0.125975
 H         0.573387         0.032532         0.654900
 H         1.237279         2.081110         1.330012
 H         0.581909         2.986766        -0.292610
 H         0.397175         4.058829         2.338543
 H        -1.007850         2.283356         3.738022
 H        -0.438677         0.499107         2.480953
 H        -2.253319         0.709570         2.246607
 H        -2.379722         4.395582         2.126281
 H        -2.650360         1.346626        -0.497069
 H        -1.542503         2.612996        -1.013396
