19
Iteration:  4664
 O        -0.117205         0.233372        -0.046070
 C        -0.693152         1.398183         0.659854
 C         0.235472         2.634235         0.479664
 C        -0.282933         3.500273         1.532692
 C        -1.094697         2.604840         2.676535
 C        -0.780814         1.138692         2.174837
 C        -1.798211         3.441726         1.783083
 O        -2.697218         2.936240         0.896195
 C        -2.108858         1.895479         0.133652
 H         0.805505         0.448937        -0.198763
 H         1.313362         2.376383         0.776051
 H         0.161679         3.017924        -0.535830
 H         0.286188         4.347376         1.996530
 H        -1.109660         2.936230         3.702577
 H         0.163540         0.808229         2.534957
 H        -1.616538         0.359641         2.430713
 H        -2.253892         4.384964         2.200487
 H        -2.866806         1.073849        -0.063518
 H        -1.815915         2.222474        -0.926644
