19
Iteration:  4859
 O        -0.228630         0.331034        -0.177461
 C        -0.632229         1.414114         0.663954
 C         0.241632         2.623832         0.562680
 C        -0.343118         3.576949         1.515537
 C        -0.858858         2.685731         2.717127
 C        -0.936969         1.206636         2.177444
 C        -1.805343         3.488367         1.733269
 O        -2.676041         2.753638         0.950920
 C        -2.028854         1.773802         0.131486
 H         0.603251        -0.060618         0.114012
 H         1.271834         2.357422         0.761873
 H         0.137050         3.122303        -0.423179
 H         0.331542         4.423045         1.721463
 H        -0.722310         2.972472         3.716431
 H        -0.262603         0.636361         2.719788
 H        -1.881306         0.644512         2.298976
 H        -2.261741         4.320580         2.215238
 H        -2.610828         0.905324         0.195031
 H        -2.004970         2.143947        -0.915133
