19
Iteration:  3321charge 0 multiplicity 1
 O        -0.320307         0.283474        -0.114347
 C        -0.601991         1.464293         0.571090
 C         0.249949         2.688309         0.610905
 C        -0.406034         3.547973         1.659450
 C        -0.987139         2.586422         2.724856
 C        -0.731866         1.161296         2.132755
 C        -1.858777         3.421209         1.794122
 O        -2.592708         2.946251         0.754729
 C        -2.032429         1.734972         0.174716
 H         0.526061         0.157068        -0.553712
 H         1.338264         2.450012         0.904305
 H         0.117583         3.205538        -0.363156
 H         0.041029         4.518567         1.986194
 H        -0.794226         2.777353         3.847692
 H         0.126807         0.668606         2.543685
 H        -1.471688         0.359142         2.392775
 H        -2.309158         4.371378         2.171575
 H        -2.698431         0.940228         0.562189
 H        -2.089670         1.680602        -0.957511
