19
Iteration:   322charge 0 multiplicity 1
 O        -0.118348         0.321011        -0.009556
 C        -0.730802         1.420448         0.635948
 C         0.401310         2.493138         0.758889
 C        -0.274164         3.414999         1.782824
 C        -1.096405         2.470196         2.660139
 C        -1.169271         1.160424         1.990047
 C        -1.817477         3.476242         1.841427
 O        -2.602768         3.004800         0.705389
 C        -1.919688         2.049580        -0.119752
 H         0.572450         0.052657         0.679857
 H         1.234913         2.080758         1.335365
 H         0.577747         2.980259        -0.254771
 H         0.410261         4.072692         2.388322
 H        -0.966798         2.294350         3.696768
 H        -0.414580         0.494305         2.469920
 H        -2.243994         0.728061         2.217796
 H        -2.380393         4.348285         2.098480
 H        -2.643641         1.353247        -0.522776
 H        -1.566967         2.622028        -1.044569
