19
Iteration:  4299charge 0 multiplicity 1
 O        -0.096537         0.251142         0.007318
 C        -0.657786         1.402408         0.612989
 C         0.256179         2.730397         0.411079
 C        -0.291541         3.529971         1.566512
 C        -0.992616         2.646565         2.648832
 C        -0.756890         1.186728         2.102919
 C        -1.817996         3.535506         1.791947
 O        -2.703239         2.885354         0.944956
 C        -2.211230         1.632140         0.213399
 H         0.143927         0.400184        -0.917511
 H         1.367766         2.610283         0.551760
 H        -0.007192         3.219783        -0.551205
 H         0.216314         4.503086         1.918446
 H        -0.759294         2.765692         3.726633
 H         0.223444         0.785166         2.393928
 H        -1.551777         0.382176         2.422148
 H        -2.227944         4.552793         2.106609
 H        -3.034735         0.852090         0.555161
 H        -2.147025         1.831212        -0.806974
