19
Iteration:  2004charge 0 multiplicity 1
 O        -0.398958         0.160051        -0.133723
 C        -0.653077         1.384619         0.659755
 C         0.422348         2.643040         0.810196
 C        -0.370638         3.494041         1.895841
 C        -1.230148         2.461304         2.724018
 C        -0.927967         1.060899         2.135602
 C        -1.891751         3.456804         1.744678
 O        -2.447681         3.129124         0.553684
 C        -1.842626         2.011652        -0.038113
 H         0.568598         0.089033        -0.107002
 H         1.329569         2.413087         1.353570
 H         0.515719         3.125778        -0.166790
 H         0.226122         4.430069         2.219205
 H        -1.448164         2.437983         3.834682
 H        -0.084105         0.514141         2.608211
 H        -1.742029         0.343560         2.281497
 H        -2.272314         4.429805         2.067904
 H        -2.545756         1.196390        -0.206835
 H        -1.318346         2.302643        -0.998434
