19
Iteration:  2456
 O        -0.249108         0.269802        -0.084668
 C        -0.619468         1.445093         0.615320
 C         0.391452         2.545201         0.749190
 C        -0.306189         3.463293         1.778877
 C        -1.105287         2.623736         2.674479
 C        -0.859942         1.172721         2.082635
 C        -1.890589         3.499816         1.787764
 O        -2.576260         2.991483         0.650298
 C        -2.052647         1.839970         0.099114
 H         0.102301         0.480903        -0.980598
 H         1.188346         1.981228         1.308645
 H         0.825285         2.973666        -0.177451
 H         0.307917         4.209193         2.196644
 H        -1.040799         2.717044         3.680711
 H         0.025778         0.720601         2.515907
 H        -1.811052         0.613062         2.185022
 H        -2.418362         4.360102         2.056163
 H        -2.725321         0.958812         0.467217
 H        -2.172431         1.787434        -0.955455
