19
Iteration:  2077charge 0 multiplicity 1
 O        -0.182650         0.205098        -0.141813
 C        -0.662608         1.369721         0.681314
 C         0.263416         2.638554         0.688938
 C        -0.286078         3.397451         1.948724
 C        -1.130257         2.524203         2.719869
 C        -1.164211         1.081601         2.174094
 C        -1.861479         3.525231         1.796306
 O        -2.364727         3.136873         0.507407
 C        -1.950432         1.903578        -0.032871
 H         0.808103         0.262071        -0.125924
 H         1.362012         2.369185         0.830108
 H         0.052648         3.399482        -0.110138
 H         0.286282         4.113188         2.640359
 H        -1.195453         2.639652         3.840864
 H        -0.427816         0.410077         2.706811
 H        -2.153770         0.590364         2.167611
 H        -2.326933         4.338149         2.289718
 H        -2.774446         1.133018        -0.013662
 H        -1.603158         2.047462        -1.005766
