19
Iteration:  3366
 O        -0.001464         0.391276        -0.132072
 C        -0.725909         1.409431         0.671683
 C        -0.009228         2.661569         0.479960
 C        -0.306644         3.432302         1.721886
 C        -0.949690         2.531402         2.785383
 C        -0.717806         1.154602         2.150923
 C        -1.796315         3.519648         1.858677
 O        -2.555019         2.978325         0.630015
 C        -2.176775         1.735866         0.186285
 H        -0.147323        -0.464484         0.329322
 H         1.113588         2.405624         0.444275
 H        -0.506697         3.057164        -0.438496
 H         0.227148         4.437475         1.736732
 H        -1.048875         2.766975         3.843992
 H         0.178044         0.676601         2.467998
 H        -1.444592         0.450643         2.561418
 H        -2.218236         4.459078         2.192731
 H        -3.018961         1.110001         0.374737
 H        -2.264302         1.911581        -0.944813
