19
Iteration:  1672charge 0 multiplicity 1
 O        -0.300115         0.229952        -0.109857
 C        -0.588199         1.459800         0.618193
 C         0.427219         2.545477         0.766153
 C        -0.338350         3.428812         1.792433
 C        -1.277506         2.463877         2.738368
 C        -1.019958         1.120803         2.156518
 C        -1.859082         3.479766         1.776943
 O        -2.562613         3.070654         0.658032
 C        -1.817509         2.075444        -0.103179
 H         0.466084        -0.266168         0.289853
 H         1.356972         2.124628         1.319660
 H         0.614630         3.076871        -0.194354
 H         0.217681         4.242316         2.275243
 H        -1.281448         2.603127         3.782811
 H        -0.136501         0.526710         2.642337
 H        -1.759561         0.391491         2.004633
 H        -2.372055         4.160536         2.338150
 H        -2.449281         1.194119        -0.247749
 H        -1.415826         2.313141        -1.136821
