19
Iteration:  4889
 O        -0.248108         0.218982        -0.125730
 C        -0.629406         1.411583         0.611770
 C         0.222812         2.767048         0.462833
 C        -0.276340         3.559495         1.633232
 C        -0.952733         2.670695         2.781223
 C        -0.877094         1.255661         2.201325
 C        -1.776304         3.492935         1.754947
 O        -2.659964         2.720396         0.931141
 C        -2.055036         1.792946         0.011774
 H         0.100841        -0.407864         0.551933
 H         1.300341         2.443084         0.366805
 H         0.082746         3.466710        -0.444972
 H         0.315890         4.452978         1.866895
 H        -0.806607         2.911490         3.817370
 H         0.061904         0.789531         2.740969
 H        -1.629373         0.579987         2.371452
 H        -2.294333         4.296294         2.216460
 H        -2.745848         0.866760        -0.090078
 H        -1.965673         2.216688        -0.970563
