19
Iteration:  4764charge 0 multiplicity 1
 O        -0.030249         0.373115        -0.096527
 C        -0.740128         1.369045         0.613554
 C         0.147201         2.658383         0.528601
 C        -0.322835         3.591214         1.626589
 C        -0.931792         2.571393         2.742646
 C        -0.789472         1.144000         2.195774
 C        -1.825400         3.469739         1.799555
 O        -2.526571         2.981834         0.697273
 C        -2.239698         1.687329         0.213787
 H        -0.574681        -0.447000        -0.187233
 H         1.225635         2.376810         0.622133
 H         0.012133         3.173334        -0.421022
 H         0.283042         4.429788         1.961181
 H        -0.869748         2.899072         3.743391
 H         0.165430         0.675063         2.492787
 H        -1.548371         0.331266         2.463283
 H        -2.308804         4.358657         2.084039
 H        -2.938182         0.909832         0.660444
 H        -2.335863         1.784896        -0.882727
