19
Iteration:  4589
 O        -0.300557         0.150974        -0.058043
 C        -0.653197         1.410200         0.635117
 C         0.253033         2.702532         0.482639
 C        -0.360373         3.479810         1.641035
 C        -1.045905         2.612192         2.725588
 C        -0.689848         1.159084         2.195984
 C        -1.849572         3.489342         1.766080
 O        -2.664702         2.905504         0.802824
 C        -2.015475         1.924845         0.093407
 H         0.645007         0.007180         0.191004
 H         1.379882         2.491109         0.631356
 H         0.178591         3.220366        -0.502546
 H         0.172638         4.388381         2.065383
 H        -0.682393         2.783493         3.721752
 H         0.298527         0.906441         2.667226
 H        -1.418069         0.388082         2.340313
 H        -2.545295         4.240904         2.309666
 H        -2.700769         1.053275        -0.180931
 H        -1.795084         2.331499        -0.840558
