19
Iteration:  1272
 O        -0.132782         0.331441        -0.110500
 C        -0.743249         1.370823         0.656824
 C         0.277777         2.522345         0.847989
 C        -0.298322         3.468327         1.799435
 C        -1.166090         2.490811         2.658713
 C        -1.011533         1.103979         2.124746
 C        -1.785918         3.504413         1.746361
 O        -2.563115         2.986968         0.665970
 C        -1.932384         2.033370        -0.096739
 H         0.669499         0.019201         0.344582
 H         1.245962         2.151823         1.228999
 H         0.457612         2.778574        -0.199839
 H         0.293252         4.355465         2.351682
 H        -1.167519         2.569283         3.805814
 H        -0.063365         0.627387         2.464531
 H        -1.960790         0.501842         2.186072
 H        -2.350332         4.310579         2.248665
 H        -2.793673         1.277805        -0.261977
 H        -1.517759         2.444446        -1.114038
