19
Iteration:  1067
 O        -0.260201         0.295769        -0.202066
 C        -0.635570         1.491105         0.657709
 C         0.373388         2.610115         0.826693
 C        -0.309976         3.493955         1.903671
 C        -1.224281         2.509591         2.773796
 C        -0.953640         1.037971         2.144149
 C        -1.751434         3.440800         1.688398
 O        -2.587381         3.026192         0.571019
 C        -1.933638         1.930975        -0.050846
 H         0.524504         0.008303         0.239965
 H         1.358316         2.232446         1.188187
 H         0.637957         3.207129        -0.058338
 H         0.222759         4.397480         2.481809
 H        -1.556572         2.588329         3.784394
 H        -0.170974         0.326999         2.584906
 H        -1.883210         0.552110         2.279851
 H        -2.255143         4.280678         1.977787
 H        -2.479342         1.044316         0.175340
 H        -1.853612         2.098616        -1.096348
