19
Iteration:  1506
 O        -0.122754         0.329171        -0.109166
 C        -0.683744         1.388493         0.630124
 C         0.429085         2.531880         0.790959
 C        -0.290606         3.398315         1.818540
 C        -1.184891         2.469090         2.788435
 C        -1.125339         1.153684         2.090871
 C        -1.843653         3.483982         1.731492
 O        -2.574696         3.025004         0.659379
 C        -1.960031         2.003176        -0.098566
 H         0.590582         0.078574         0.496455
 H         1.357917         2.072307         1.158948
 H         0.631277         2.945960        -0.212002
 H         0.054628         4.355451         2.172894
 H        -0.966828         2.680540         3.898274
 H        -0.284884         0.513646         2.585620
 H        -2.049173         0.605746         2.088615
 H        -2.182448         4.448030         2.176184
 H        -2.626993         1.128545        -0.296483
 H        -1.692961         2.419762        -1.103654
