19
Iteration:  1985charge 0 multiplicity 1
 O        -0.402642         0.310035        -0.058352
 C        -0.604918         1.512201         0.629378
 C         0.374395         2.616565         0.837382
 C        -0.320796         3.403322         1.890924
 C        -1.194836         2.482778         2.717873
 C        -1.042371         1.184961         2.138447
 C        -1.797451         3.460660         1.801969
 O        -2.469429         2.966020         0.584432
 C        -1.820236         1.947503        -0.188999
 H         0.314348        -0.318117        -0.030136
 H         1.389541         1.964145         0.992807
 H         0.317264         3.140969        -0.132362
 H         0.292626         4.089514         2.494058
 H        -1.267384         2.706055         3.805622
 H        -0.188443         0.632319         2.556959
 H        -1.961322         0.470021         2.096679
 H        -2.535811         4.241737         2.232262
 H        -2.395045         1.047149        -0.379215
 H        -1.377216         2.377406        -1.183880
