19
Iteration:  2183
 O         0.045013         0.256152         0.053714
 C        -0.689403         1.439966         0.581624
 C         0.319497         2.508848         0.698331
 C        -0.245326         3.341726         1.843274
 C        -1.088234         2.538917         2.791364
 C        -1.149294         1.178596         2.088281
 C        -1.750128         3.469594         1.756801
 O        -2.657551         3.073426         0.680857
 C        -2.017089         2.011539        -0.161581
 H        -0.620506        -0.374326        -0.314501
 H         1.284861         2.053731         1.026555
 H         0.499284         3.079552        -0.211450
 H         0.241487         4.269729         2.120745
 H        -1.069058         2.680994         3.874661
 H        -0.493393         0.313373         2.361647
 H        -2.204659         0.738928         2.233529
 H        -2.160614         4.322211         2.256137
 H        -2.743574         1.207468        -0.354424
 H        -1.717678         2.625608        -1.122219
