19
Iteration:  1440
 O        -0.230170         0.285754        -0.087793
 C        -0.652047         1.437069         0.683606
 C         0.411049         2.513585         0.804599
 C        -0.300958         3.476470         1.826643
 C        -1.185184         2.479179         2.703979
 C        -0.970245         1.075212         2.065379
 C        -1.827624         3.493472         1.745723
 O        -2.624679         3.062826         0.626057
 C        -1.935259         1.979220        -0.071947
 H         0.709769         0.163837         0.174439
 H         1.318586         2.057224         1.185185
 H         0.813030         3.027699        -0.053655
 H         0.068494         4.290637         2.353050
 H        -1.315000         2.443582         3.800552
 H        -0.082398         0.662120         2.641188
 H        -1.838346         0.494686         2.111302
 H        -2.465224         4.289250         2.249827
 H        -2.707252         1.197599        -0.306020
 H        -1.542308         2.405846        -1.074371
