19
Iteration:  2910charge 0 multiplicity 1
 O        -0.221307         0.351830        -0.208395
 C        -0.626802         1.351169         0.692773
 C         0.176530         2.683012         0.615805
 C        -0.265479         3.459196         1.799281
 C        -1.076185         2.560633         2.692338
 C        -0.858569         1.106339         2.218728
 C        -1.840202         3.459517         1.777431
 O        -2.427992         3.047422         0.551010
 C        -2.116551         1.687999         0.271795
 H        -0.014050         0.919282        -0.979654
 H         1.339286         2.584999         0.593996
 H        -0.036314         3.166360        -0.306120
 H         0.364713         4.245077         2.142898
 H        -1.228419         2.830029         3.739320
 H         0.037741         0.722529         2.747584
 H        -1.745301         0.517456         2.410498
 H        -2.318851         4.437096         2.064471
 H        -2.788774         1.090296         0.901514
 H        -2.161938         1.458856        -0.823409
