19
Iteration:  4221
 O        -0.078690         0.299655        -0.074591
 C        -0.696782         1.470368         0.568227
 C         0.287050         2.707718         0.416543
 C        -0.283427         3.518581         1.600151
 C        -1.030513         2.593575         2.609474
 C        -0.653015         1.258261         2.148472
 C        -1.831229         3.489989         1.788453
 O        -2.723086         2.860439         0.852260
 C        -2.215432         1.704337         0.337707
 H        -0.801436        -0.344297        -0.119359
 H         1.321852         2.389363         0.581854
 H         0.215411         3.217878        -0.572078
 H         0.011901         4.485198         1.820801
 H        -0.781113         2.773470         3.649628
 H         0.385729         1.022694         2.509544
 H        -1.227067         0.334015         2.528070
 H        -2.235129         4.343033         2.177540
 H        -2.737169         0.753299         0.829637
 H        -2.476055         1.610488        -0.681068
