19
Iteration:  4841charge 0 multiplicity 1
 O        -0.191909         0.289630        -0.093792
 C        -0.685712         1.402515         0.654283
 C         0.331881         2.591534         0.520264
 C        -0.317542         3.564234         1.537728
 C        -0.892501         2.622373         2.630523
 C        -0.750701         1.215452         2.209971
 C        -1.867095         3.428531         1.841477
 O        -2.774307         2.872976         0.887511
 C        -2.161683         1.820202         0.080698
 H         0.750344         0.474541        -0.001307
 H         1.280227         2.205392         1.009982
 H         0.696937         2.790458        -0.460104
 H         0.004657         4.573172         1.783839
 H        -0.807615         2.922086         3.714221
 H         0.155127         0.597728         2.495778
 H        -1.676495         0.612084         2.677903
 H        -2.214031         4.445878         2.138009
 H        -2.817503         0.914607         0.037035
 H        -2.037737         2.176957        -0.996054
