19
Iteration:  4542charge 0 multiplicity 1
 O        -0.142511         0.384912        -0.163234
 C        -0.693211         1.416293         0.653555
 C         0.265347         2.676894         0.459304
 C        -0.316375         3.533761         1.690706
 C        -0.933266         2.637943         2.716752
 C        -0.886422         1.152042         2.253106
 C        -1.819670         3.515324         1.795075
 O        -2.581130         2.890057         0.772365
 C        -2.111090         1.686696         0.134236
 H        -0.403821        -0.491034         0.152606
 H         1.398153         2.292820         0.637350
 H         0.328660         3.070110        -0.560062
 H         0.193277         4.359298         2.058939
 H        -0.963873         2.765180         3.854158
 H        -0.065134         0.550080         2.570130
 H        -1.927147         0.645152         2.419950
 H        -2.240672         4.468380         2.071025
 H        -2.801075         0.843106         0.395226
 H        -2.231605         1.734701        -0.984375
