19
Iteration:  4885
 O        -0.255081         0.236132        -0.145801
 C        -0.656298         1.389280         0.608951
 C         0.234881         2.765259         0.414496
 C        -0.243058         3.574329         1.659975
 C        -0.983095         2.670601         2.771221
 C        -0.882779         1.283273         2.203037
 C        -1.781039         3.528942         1.756191
 O        -2.637662         2.686408         0.937544
 C        -2.036968         1.763091         0.035301
 H         0.115828        -0.404593         0.467303
 H         1.297754         2.467146         0.386537
 H         0.069343         3.408289        -0.411186
 H         0.265978         4.519934         1.856482
 H        -0.735966         2.809569         3.891823
 H        -0.077695         0.825537         2.883869
 H        -1.798650         0.543600         2.438698
 H        -2.334936         4.317189         2.322988
 H        -2.718924         0.881332        -0.099683
 H        -1.855446         2.224023        -0.999095
