19
Iteration:  2417
 O        -0.156869         0.294471        -0.006344
 C        -0.678386         1.419459         0.635419
 C         0.248835         2.573923         0.618011
 C        -0.296196         3.481571         1.749442
 C        -1.058568         2.519480         2.699824
 C        -0.949449         1.121898         2.174051
 C        -1.831383         3.469276         1.760951
 O        -2.582056         2.931664         0.746178
 C        -1.912066         1.997405        -0.069184
 H        -0.899463        -0.328808         0.021952
 H         1.312909         2.356668         0.756968
 H         0.285250         3.005823        -0.366702
 H         0.259823         4.308955         2.178070
 H        -1.170984         2.805047         3.781212
 H        -0.163045         0.496081         2.648015
 H        -1.870053         0.519555         2.259604
 H        -2.306546         4.403495         2.176423
 H        -2.648536         1.281475        -0.374458
 H        -1.478208         2.592965        -0.941420
