19
Iteration:  1113charge 0 multiplicity 1
 O        -0.107135         0.299649        -0.111955
 C        -0.658456         1.374827         0.646333
 C         0.274767         2.670468         0.752912
 C        -0.324352         3.408433         1.839742
 C        -1.187621         2.440732         2.712569
 C        -1.032467         1.081972         2.128625
 C        -1.786689         3.494031         1.730378
 O        -2.510273         3.087158         0.632782
 C        -1.967723         1.943569        -0.026838
 H         0.470210        -0.152221         0.517729
 H         1.296687         2.324678         0.926700
 H         0.368496         3.174225        -0.237655
 H         0.157497         4.418033         2.149178
 H        -1.355472         2.486950         3.863313
 H        -0.264932         0.447794         2.641834
 H        -1.954058         0.431507         2.073970
 H        -2.402348         4.293650         2.248780
 H        -2.802145         1.217010        -0.090854
 H        -1.674982         2.262818        -1.041404
