19
Iteration:   339
 O        -0.162972         0.268445        -0.125921
 C        -0.674401         1.407827         0.607258
 C         0.331141         2.568861         0.807213
 C        -0.259778         3.419041         1.849614
 C        -1.147880         2.515512         2.750666
 C        -1.157699         1.063766         2.122396
 C        -1.722441         3.524043         1.731722
 O        -2.593471         2.978412         0.738762
 C        -1.870440         2.046125        -0.156528
 H         0.573800        -0.109191         0.451658
 H         1.300038         2.098366         1.087921
 H         0.503116         3.117905        -0.107711
 H         0.124178         4.439427         2.169395
 H        -1.429670         2.901105         3.753552
 H        -0.495564         0.292253         2.541581
 H        -2.096980         0.699458         1.907792
 H        -2.246723         4.346224         2.243054
 H        -2.621398         1.258959        -0.467351
 H        -1.722196         2.518657        -1.138298
