19
Iteration:  1529
 O        -0.262219         0.269763        -0.173797
 C        -0.592272         1.373082         0.660654
 C         0.386164         2.556209         0.877797
 C        -0.326210         3.502049         1.833544
 C        -1.217047         2.452655         2.605328
 C        -0.938863         1.056940         2.103587
 C        -1.891543         3.534435         1.739286
 O        -2.576223         3.102986         0.634203
 C        -1.905490         1.988161        -0.014424
 H         0.478049        -0.225665         0.277244
 H         1.199966         2.041334         1.387139
 H         0.758856         3.016232        -0.055911
 H         0.268765         4.282611         2.405162
 H        -1.557615         2.695834         3.680714
 H        -0.029265         0.773229         2.765820
 H        -1.710300         0.343777         2.159783
 H        -2.253099         4.376740         2.258874
 H        -2.376294         0.987568        -0.010751
 H        -1.782363         2.246067        -1.120152
