19
Iteration:  2214charge 0 multiplicity 1
 O        -0.263413         0.185225         0.025119
 C        -0.630712         1.458915         0.638590
 C         0.319206         2.597586         0.759781
 C        -0.314357         3.474659         1.847055
 C        -1.175625         2.485929         2.642876
 C        -0.995254         1.102289         2.057294
 C        -1.782927         3.547236         1.760239
 O        -2.535207         3.060304         0.637163
 C        -1.853386         1.923313        -0.012345
 H        -0.649371         0.233882        -0.861979
 H         1.215826         2.297563         1.264791
 H         0.567311         3.121914        -0.179729
 H         0.225775         4.214140         2.350725
 H        -1.095156         2.669660         3.691073
 H        -0.034135         0.605301         2.294995
 H        -1.780032         0.286896         2.171008
 H        -2.434695         4.226987         2.252594
 H        -2.539673         1.089975        -0.077117
 H        -1.733346         2.304665        -1.024959
