19
Iteration:  1759
 O        -0.323378         0.256850        -0.126728
 C        -0.672867         1.427976         0.645522
 C         0.408340         2.501343         0.831533
 C        -0.299821         3.401094         1.912219
 C        -1.229158         2.474990         2.716435
 C        -0.914677         1.108784         2.133823
 C        -1.848347         3.461521         1.765567
 O        -2.545282         3.112444         0.570817
 C        -1.901471         2.009419        -0.128810
 H         0.627441         0.046200         0.090091
 H         1.258031         2.014740         1.448448
 H         0.858351         3.210631         0.090885
 H         0.234048         4.272311         2.290403
 H        -1.571690         2.630928         3.725168
 H         0.025506         0.741250         2.601292
 H        -1.715802         0.475785         2.313634
 H        -2.259963         4.467455         1.984051
 H        -2.781964         1.379817        -0.270525
 H        -1.522401         2.287722        -1.106839
