19
Iteration:   593
 O        -0.245448         0.229450        -0.178271
 C        -0.698033         1.437615         0.676236
 C         0.364086         2.532740         0.867846
 C        -0.296158         3.498195         1.849638
 C        -1.160841         2.481850         2.770544
 C        -1.037363         1.132835         2.088603
 C        -1.825181         3.475391         1.741304
 O        -2.537049         3.025237         0.608739
 C        -1.893554         2.015263        -0.116597
 H         0.605470        -0.077945         0.203668
 H         1.402326         2.222586         1.274723
 H         0.673212         2.972645        -0.079169
 H         0.261709         4.434170         2.378439
 H        -1.299130         2.591071         3.879559
 H        -0.121947         0.558471         2.504306
 H        -1.910096         0.572441         2.299980
 H        -2.470531         4.249226         2.232633
 H        -2.549779         1.141931        -0.274282
 H        -1.746378         2.432147        -1.052355
