19
Iteration:  2145
 O        -0.221784         0.305466        -0.241793
 C        -0.645792         1.416254         0.667203
 C         0.409923         2.548140         0.807576
 C        -0.288429         3.470244         1.791591
 C        -1.207998         2.544126         2.787511
 C        -1.167445         1.154661         2.124813
 C        -1.757248         3.490926         1.754162
 O        -2.503363         2.971213         0.681243
 C        -1.835834         1.938508        -0.043003
 H        -0.316575        -0.508373         0.291695
 H         1.315968         2.136538         1.254396
 H         0.590354         2.968985        -0.244556
 H         0.241898         4.428169         2.121246
 H        -1.359096         2.853688         3.854166
 H        -0.533488         0.561117         2.819436
 H        -2.115887         0.639225         2.008608
 H        -2.347972         4.396615         2.127641
 H        -2.613658         1.140770        -0.132351
 H        -1.573082         2.262351        -1.021646
