19
Iteration:  1868
 O        -0.279908         0.229254        -0.113423
 C        -0.606123         1.384112         0.662031
 C         0.408870         2.574603         0.776378
 C        -0.426573         3.458226         1.833374
 C        -1.261539         2.439543         2.686874
 C        -0.956849         1.005275         2.163154
 C        -1.821586         3.489941         1.810266
 O        -2.496279         3.193972         0.541305
 C        -1.899596         1.995466        -0.066263
 H         0.512996        -0.128478         0.295074
 H         1.286354         2.199767         1.268008
 H         0.792129         3.141565        -0.098191
 H         0.091915         4.309552         2.287505
 H        -1.207776         2.672713         3.768930
 H        -0.080700         0.510747         2.602386
 H        -1.829553         0.342430         2.251641
 H        -2.262919         4.451635         2.402762
 H        -2.817250         1.332230        -0.188265
 H        -1.545608         2.290931        -1.041125
