19
Iteration:  1347
 O        -0.092813         0.288923        -0.068501
 C        -0.733592         1.383746         0.576772
 C         0.250706         2.569091         0.745971
 C        -0.326412         3.353203         1.886083
 C        -1.149671         2.440148         2.727052
 C        -1.012783         1.126805         2.215613
 C        -1.855445         3.390254         1.805978
 O        -2.420116         3.204634         0.551609
 C        -2.018230         1.968934        -0.108753
 H         0.618844        -0.060177         0.505988
 H         1.318627         2.339632         0.633469
 H         0.187518         3.231081        -0.161449
 H         0.299345         4.355020         2.107056
 H        -1.300156         2.713489         3.853011
 H         0.023407         0.862509         2.487766
 H        -1.823026         0.249182         2.256548
 H        -2.440135         4.161606         2.355495
 H        -2.905541         1.326855        -0.042384
 H        -1.857377         2.197690        -1.119666
