19
Iteration:  1810
 O        -0.196526         0.273940        -0.182031
 C        -0.617027         1.365583         0.656870
 C         0.284028         2.644836         0.764205
 C        -0.251936         3.444995         1.937324
 C        -1.228399         2.458408         2.720700
 C        -1.150179         1.092122         2.091979
 C        -1.770686         3.515596         1.814165
 O        -2.367679         3.134956         0.522412
 C        -1.938643         1.871063         0.018035
 H         0.463184        -0.313706         0.242825
 H         1.297041         2.592446         0.831452
 H        -0.013003         3.267097        -0.067183
 H         0.254897         4.266099         2.532565
 H        -1.488345         2.664090         3.744694
 H        -0.476292         0.423052         2.602755
 H        -2.202887         0.574540         2.119623
 H        -2.361678         4.305926         2.115017
 H        -2.730554         1.119867         0.265298
 H        -1.863493         1.909731        -1.087445
