19
Iteration:  1881
 O        -0.393425         0.201583        -0.125624
 C        -0.607623         1.399332         0.651207
 C         0.379667         2.574210         0.851706
 C        -0.327992         3.413443         1.857405
 C        -1.241360         2.483324         2.702926
 C        -0.937086         1.172740         2.080830
 C        -1.925540         3.454687         1.772197
 O        -2.466506         3.091535         0.591208
 C        -1.787856         2.043037        -0.064277
 H         0.495632        -0.199118         0.027177
 H         1.412094         2.335032         1.283081
 H         0.450168         3.036871        -0.159091
 H         0.230645         4.132968         2.410695
 H        -1.425567         2.549548         3.775581
 H        -0.096894         0.746624         2.677836
 H        -1.698370         0.449655         2.139540
 H        -2.528536         4.348488         2.217996
 H        -2.440388         1.120668        -0.162329
 H        -1.507473         2.360581        -1.095552
