19
Iteration:  4435
 O        -0.169613         0.406379        -0.209089
 C        -0.684223         1.361770         0.640846
 C         0.113426         2.604904         0.478471
 C        -0.299779         3.537475         1.634852
 C        -0.952154         2.724458         2.738515
 C        -0.799898         1.160767         2.315246
 C        -1.801808         3.494688         1.796455
 O        -2.606902         2.878713         0.787950
 C        -2.010574         1.695261         0.146044
 H        -0.299824        -0.491348         0.154779
 H         1.135233         2.358889         0.450222
 H        -0.222622         3.153414        -0.367872
 H         0.322989         4.341063         1.706730
 H        -1.210586         2.951871         3.797776
 H         0.158332         0.627214         2.631813
 H        -1.593545         0.456912         2.586955
 H        -2.238114         4.346288         2.228397
 H        -2.796864         0.864785         0.230425
 H        -1.840063         1.940266        -0.892132
