19
Iteration:  3744charge 0 multiplicity 1
 O        -0.264620         0.226742        -0.017535
 C        -0.599528         1.440519         0.575062
 C         0.180397         2.809288         0.466255
 C        -0.330427         3.677531         1.510945
 C        -0.865977         2.635681         2.617963
 C        -0.763607         1.219258         2.118198
 C        -1.835366         3.446604         1.837127
 O        -2.706351         2.754210         0.971554
 C        -2.055847         1.632554         0.195956
 H         0.421272         0.476907        -0.640072
 H         1.264442         2.630341         0.515465
 H         0.208731         3.193592        -0.614657
 H         0.120824         4.602020         1.912915
 H        -0.624102         2.884540         3.623824
 H         0.138178         0.772800         2.538596
 H        -1.677794         0.708494         2.281964
 H        -2.521722         4.166349         2.495005
 H        -2.464892         0.695255         0.424844
 H        -2.325396         1.885102        -0.854726
