19
Iteration:  2170
 O         0.005453         0.366959        -0.036233
 C        -0.765639         1.363125         0.665640
 C         0.272401         2.511225         0.731144
 C        -0.251636         3.415783         1.779168
 C        -1.042087         2.504587         2.707786
 C        -1.247721         1.087926         2.107848
 C        -1.769459         3.586287         1.779364
 O        -2.570756         2.980759         0.718994
 C        -1.876241         2.012330        -0.118916
 H        -0.506167        -0.455876        -0.021040
 H         1.229649         2.101672         0.962790
 H         0.280595         2.978526        -0.275393
 H         0.396975         4.084579         2.193229
 H        -1.065908         2.698540         3.738505
 H        -0.585390         0.497831         2.790302
 H        -2.310955         0.693443         2.045830
 H        -2.272564         4.468737         2.096575
 H        -2.685763         1.306075        -0.335566
 H        -1.494314         2.350229        -1.144893
