19
Iteration:  1743
 O        -0.298292         0.287066        -0.173554
 C        -0.616789         1.399765         0.694316
 C         0.423516         2.582568         0.843519
 C        -0.295873         3.434215         1.871127
 C        -1.201733         2.506017         2.675386
 C        -1.145187         1.073054         2.106106
 C        -1.793228         3.571821         1.733138
 O        -2.540597         3.022788         0.628168
 C        -1.818958         1.957242        -0.048313
 H         0.627139         0.009962         0.030811
 H         1.349924         2.248623         1.183782
 H         0.404708         2.976718        -0.157657
 H         0.317864         4.154078         2.461993
 H        -1.043377         2.667254         3.763369
 H        -0.458666         0.455895         2.687019
 H        -2.139601         0.463888         2.074980
 H        -2.395116         4.323319         2.267471
 H        -2.475907         1.068675        -0.257847
 H        -1.624173         2.438994        -1.042337
