19
Iteration:  1263charge 0 multiplicity 1
 O        -0.129096         0.317162        -0.085673
 C        -0.698764         1.349879         0.697600
 C         0.275548         2.549967         0.689496
 C        -0.341241         3.509106         1.761846
 C        -1.169656         2.435463         2.645829
 C        -1.039410         1.084058         2.149916
 C        -1.804547         3.454019         1.783191
 O        -2.531554         3.014355         0.735077
 C        -1.896208         2.048089        -0.119319
 H         0.633879         0.099459         0.480123
 H         1.165356         2.055971         1.160895
 H         0.527436         3.072947        -0.237728
 H         0.351854         4.252443         2.402143
 H        -1.445746         2.780351         3.663285
 H        -0.352048         0.412660         2.747843
 H        -1.950107         0.582711         2.291964
 H        -2.315632         4.355152         2.198899
 H        -2.750637         1.418679        -0.522355
 H        -1.437449         2.554469        -1.087195
