19
Iteration:  2334
 O        -0.212291         0.257827        -0.095905
 C        -0.724006         1.371783         0.662591
 C         0.251607         2.564011         0.725670
 C        -0.320356         3.465162         1.842102
 C        -1.110647         2.539278         2.711838
 C        -0.845788         1.141549         2.278012
 C        -1.766790         3.460034         1.741655
 O        -2.534232         3.038209         0.612703
 C        -1.961460         1.914879        -0.059764
 H        -0.503741         0.529283        -1.007171
 H         1.172439         2.267146         1.226956
 H         0.410758         3.100986        -0.292646
 H         0.348350         4.406553         2.021420
 H        -1.353691         2.741728         3.824326
 H         0.099209         0.643011         2.590683
 H        -1.758893         0.454419         2.387806
 H        -2.441868         4.208911         2.255430
 H        -2.932945         1.287623        -0.256234
 H        -1.595167         2.197203        -1.045677
