19
Iteration:  4189
 O        -0.071095         0.323877        -0.112465
 C        -0.742055         1.369536         0.722618
 C         0.039664         2.640750         0.439244
 C        -0.294912         3.655332         1.560505
 C        -0.814476         2.666511         2.633528
 C        -0.712401         1.201631         2.256207
 C        -1.805978         3.481589         1.918539
 O        -2.649217         2.840823         0.760349
 C        -2.144622         1.663003         0.220678
 H        -0.577297         0.213107        -0.964138
 H         1.072498         2.322283         0.411452
 H        -0.169798         2.976844        -0.551714
 H        -0.045377         4.663872         1.543101
 H        -0.602994         2.792342         3.693424
 H         0.270852         0.820009         2.579741
 H        -1.698371         0.774653         2.755749
 H        -2.436003         4.141007         2.356286
 H        -2.875440         0.798712         0.400805
 H        -1.941361         1.777507        -0.803827
