19
Iteration:  2628
 O        -0.095554         0.151501         0.064472
 C        -0.663463         1.424285         0.593294
 C         0.285048         2.675637         0.605231
 C        -0.274941         3.577595         1.649477
 C        -0.999679         2.533397         2.672196
 C        -0.907882         1.137156         2.049701
 C        -1.797708         3.524998         1.802744
 O        -2.692999         2.868665         0.884760
 C        -2.060239         1.996010        -0.092773
 H        -0.636091        -0.490569         0.582353
 H         1.273223         2.337471         0.825315
 H         0.375923         3.140736        -0.443697
 H         0.210062         4.444632         2.048846
 H        -0.954853         2.507790         3.724399
 H        -0.063588         0.513710         2.416148
 H        -1.801850         0.503422         2.077041
 H        -2.458776         4.230907         2.334971
 H        -2.854067         1.373304        -0.428671
 H        -1.676377         2.740453        -0.881426
