19
Iteration:  1518
 O        -0.188610         0.301893        -0.122900
 C        -0.609155         1.448127         0.634362
 C         0.417324         2.498787         0.845453
 C        -0.369273         3.389532         1.780284
 C        -1.241098         2.532615         2.668819
 C        -0.986278         1.084899         2.066135
 C        -1.818690         3.545967         1.786591
 O        -2.637546         3.108771         0.660797
 C        -1.897125         1.906861        -0.049501
 H         0.525359        -0.195973         0.277499
 H         1.275594         2.206728         1.446080
 H         0.799618         3.031142        -0.041208
 H         0.308850         4.163719         2.219890
 H        -1.254728         2.525302         3.836522
 H        -0.113759         0.487516         2.541392
 H        -1.814327         0.437048         2.128878
 H        -2.353713         4.381390         2.173701
 H        -2.801261         1.275647        -0.122031
 H        -1.543125         2.299515        -1.065509
