19
Iteration:  4731
 O        -0.171579         0.300237        -0.165482
 C        -0.660652         1.376343         0.663394
 C         0.217766         2.628167         0.556726
 C        -0.313421         3.539498         1.675797
 C        -1.028892         2.580281         2.685746
 C        -0.674244         1.107406         2.152528
 C        -1.843179         3.531986         1.760604
 O        -2.736542         3.038097         0.706016
 C        -2.085618         1.739589         0.285039
 H         0.389706        -0.308893         0.368084
 H         1.306361         2.291968         0.620624
 H         0.079952         3.166851        -0.384439
 H         0.462926         4.216151         2.050842
 H        -1.025008         2.854934         3.679853
 H         0.344987         0.869224         2.448591
 H        -1.446979         0.302804         2.350296
 H        -2.206872         4.463070         2.054978
 H        -2.834583         0.872980         0.413865
 H        -2.123855         1.881382        -0.817600
