19
Iteration:  3734
 O        -0.180151         0.225037         0.073101
 C        -0.632170         1.456378         0.598572
 C         0.216548         2.828434         0.330994
 C        -0.371281         3.624524         1.547939
 C        -0.902444         2.628447         2.677953
 C        -0.769917         1.211609         2.066246
 C        -1.823586         3.434104         1.843459
 O        -2.669258         2.725712         0.994004
 C        -2.101237         1.700513         0.158581
 H         0.154237         0.310263        -0.829756
 H         1.239662         2.512206         0.578774
 H        -0.086140         3.448332        -0.542931
 H         0.092346         4.619008         1.706150
 H        -0.524501         2.777577         3.663204
 H         0.032458         0.653470         2.479371
 H        -1.617614         0.564058         2.287022
 H        -2.339392         4.413987         2.272094
 H        -2.697286         0.873934         0.366202
 H        -2.288557         2.052981        -0.927089
