19
Iteration:  1972
 O        -0.256153         0.306513        -0.097898
 C        -0.703539         1.444127         0.644352
 C         0.384672         2.568464         0.778977
 C        -0.205047         3.427862         1.938883
 C        -1.160921         2.525034         2.770970
 C        -1.115530         1.139322         2.079930
 C        -1.818525         3.449015         1.748296
 O        -2.564550         2.952926         0.624323
 C        -1.853189         1.983742        -0.173969
 H         0.346324        -0.055097         0.592222
 H         1.420624         2.245068         1.116409
 H         0.603280         3.147166        -0.124829
 H         0.377454         4.322025         2.336036
 H        -1.373845         2.541709         3.865601
 H        -0.405902         0.441388         2.557491
 H        -2.131046         0.699729         2.122784
 H        -2.208853         4.402427         2.042248
 H        -2.570690         1.222212        -0.445830
 H        -1.499281         2.487504        -1.143716
