19
Iteration:  1843
 O        -0.083130         0.393894        -0.102102
 C        -0.732395         1.382157         0.662256
 C         0.260461         2.490925         0.796219
 C        -0.281691         3.393184         1.932322
 C        -1.170031         2.490986         2.683131
 C        -1.076723         1.102843         2.078846
 C        -1.740287         3.478728         1.784525
 O        -2.462593         3.131906         0.503945
 C        -2.023167         1.930114        -0.038878
 H         0.465961        -0.073901         0.519366
 H         1.199407         2.089892         0.985937
 H         0.297922         3.076177        -0.117795
 H         0.428515         4.098973         2.411629
 H        -1.391832         2.636679         3.732672
 H        -0.291826         0.448087         2.475026
 H        -2.080534         0.552202         2.291950
 H        -2.202611         4.286164         2.279912
 H        -2.885151         1.285718         0.115984
 H        -1.870091         2.027100        -1.121205
