19
Iteration:  1019
 O        -0.114812         0.299122        -0.097272
 C        -0.673737         1.366042         0.694526
 C         0.248395         2.581568         0.762842
 C        -0.345237         3.489081         1.848372
 C        -1.107342         2.490957         2.789008
 C        -1.065392         0.970057         2.117644
 C        -1.791965         3.506028         1.842313
 O        -2.543020         3.147213         0.600359
 C        -1.953891         1.893731        -0.206428
 H         0.768831         0.013419         0.296332
 H         1.316233         2.378923         1.050624
 H         0.268290         3.214687        -0.152354
 H         0.134549         4.371036         1.887876
 H        -1.158896         2.643260         3.923552
 H        -0.172128         0.461326         2.574160
 H        -1.969536         0.283753         2.272242
 H        -2.402961         4.424770         2.309370
 H        -2.772114         1.236973        -0.512902
 H        -1.452648         2.320391        -1.084985
