19
Iteration:   257charge 0 multiplicity 1
 O        -0.336503         0.352730        -0.187749
 C        -0.658603         1.415536         0.650328
 C         0.399441         2.546941         0.831689
 C        -0.337853         3.411679         1.804518
 C        -1.252294         2.451030         2.799571
 C        -0.963287         1.158332         2.190309
 C        -1.834158         3.489896         1.760923
 O        -2.458990         3.036374         0.559965
 C        -1.886593         1.961481        -0.049039
 H         0.533755        -0.005818        -0.012519
 H         1.352678         2.186569         1.334319
 H         0.647039         2.999025        -0.294116
 H         0.197568         4.339177         2.220104
 H        -1.472388         2.490957         3.839664
 H        -0.189899         0.567269         2.673833
 H        -1.844626         0.362331         2.169099
 H        -2.205706         4.410288         2.123170
 H        -2.520363         1.088683        -0.036158
 H        -1.610109         2.180860        -1.044644
