19
Iteration:  1914charge 0 multiplicity 1
 O        -0.256868         0.276637        -0.106280
 C        -0.687032         1.412055         0.651551
 C         0.384964         2.591541         0.867615
 C        -0.289879         3.407596         1.836183
 C        -1.143969         2.504316         2.746831
 C        -1.125888         1.145371         2.138887
 C        -1.745518         3.448858         1.715260
 O        -2.541022         2.963836         0.666292
 C        -1.870971         2.035093        -0.182771
 H         0.635356         0.159135         0.219520
 H         1.385153         2.332448         1.283953
 H         0.520861         3.064318        -0.117550
 H         0.257450         4.157275         2.364723
 H        -1.348619         2.622380         3.791363
 H        -0.484129         0.351671         2.606165
 H        -2.093726         0.757563         2.091581
 H        -2.352494         4.355626         1.835313
 H        -2.650764         1.260552        -0.442888
 H        -1.599118         2.607651        -1.081481
