19
Iteration:  1313charge 0 multiplicity 1
 O        -0.328308         0.331116        -0.214502
 C        -0.570628         1.422553         0.714448
 C         0.400805         2.602774         0.852007
 C        -0.311265         3.506683         1.876301
 C        -1.215992         2.484587         2.645809
 C        -1.044657         1.072730         2.078032
 C        -1.807298         3.484575         1.710557
 O        -2.469699         3.032318         0.604952
 C        -1.918802         1.857453         0.037279
 H         0.540596         0.046344         0.059225
 H         1.406217         2.340082         1.200265
 H         0.407435         3.219328        -0.069431
 H         0.252432         4.395481         2.243595
 H        -1.389031         2.663774         3.765912
 H        -0.261032         0.689171         2.745080
 H        -1.979284         0.409919         2.266285
 H        -2.498719         4.194183         2.190620
 H        -2.525213         0.954844         0.112127
 H        -1.806144         2.155880        -0.950143
