19
Iteration:   249charge 0 multiplicity 1
 O        -0.276975         0.319469        -0.187006
 C        -0.677626         1.414891         0.684517
 C         0.410376         2.517790         0.863488
 C        -0.364352         3.470523         1.804354
 C        -1.248155         2.478670         2.745259
 C        -0.951734         1.110812         2.110689
 C        -1.795036         3.408040         1.785104
 O        -2.493840         3.140324         0.550866
 C        -1.922976         1.916876        -0.010866
 H         0.601888         0.107672         0.177851
 H         1.287046         2.055336         1.267624
 H         0.566195         3.005479        -0.106566
 H         0.059584         4.331603         2.116913
 H        -1.327097         2.613737         3.865825
 H        -0.142754         0.627328         2.609496
 H        -1.846148         0.507289         2.161090
 H        -2.150907         4.375160         2.248833
 H        -2.754879         1.195283        -0.121327
 H        -1.604191         2.076056        -1.045758
