19
Iteration:  2861charge 0 multiplicity 1
 O        -0.199329         0.158511         0.166076
 C        -0.643954         1.516617         0.522748
 C         0.293751         2.652675         0.535410
 C        -0.327689         3.515971         1.705714
 C        -1.006694         2.489931         2.682570
 C        -0.825049         1.181488         2.043891
 C        -1.814367         3.465500         1.859459
 O        -2.691313         2.953839         0.826171
 C        -2.027922         1.911214        -0.039847
 H        -0.161120         0.085327        -0.798229
 H         1.277309         2.346473         0.636250
 H         0.335961         3.267510        -0.457620
 H         0.195348         4.404874         2.101354
 H        -0.903872         2.652926         3.743145
 H         0.080795         0.685597         2.397641
 H        -1.730321         0.546782         2.212529
 H        -2.364403         4.118812         2.429528
 H        -2.642532         1.037671        -0.012610
 H        -1.850702         2.309449        -1.037864
