19
Iteration:  4642charge 0 multiplicity 1
 O        -0.107881         0.302333        -0.089707
 C        -0.643673         1.382700         0.572063
 C         0.316722         2.520509         0.582332
 C        -0.353620         3.507448         1.573165
 C        -0.944732         2.644946         2.661314
 C        -0.895290         1.191181         2.116798
 C        -1.837347         3.563486         1.791108
 O        -2.759571         2.906843         0.917540
 C        -2.095687         1.803514         0.122989
 H         0.836110         0.456367        -0.325690
 H         1.305622         2.104716         1.073235
 H         0.431523         2.952396        -0.412863
 H         0.194824         4.450007         1.872493
 H        -0.756836         2.586666         3.739137
 H        -0.057469         0.723061         2.568511
 H        -1.859002         0.678953         2.534644
 H        -2.207294         4.558821         2.226789
 H        -2.619680         0.798992         0.236582
 H        -2.187557         2.033767        -0.997574
