19
Iteration:  1664
 O        -0.364420         0.256401        -0.171456
 C        -0.574120         1.380161         0.692240
 C         0.424143         2.596530         0.805141
 C        -0.358709         3.414422         1.820107
 C        -1.239833         2.493448         2.721752
 C        -0.974791         1.121299         2.150880
 C        -1.907064         3.457559         1.843194
 O        -2.519537         3.059098         0.576768
 C        -1.761678         2.020864        -0.104105
 H         0.397875        -0.286180         0.128899
 H         1.339271         2.200985         1.188682
 H         0.607037         3.091285        -0.134903
 H         0.082347         4.294638         2.216625
 H        -1.174519         2.517471         3.796776
 H        -0.163231         0.692423         2.818126
 H        -1.931731         0.509189         2.214217
 H        -2.359334         4.457556         2.198444
 H        -2.541921         1.265184        -0.147035
 H        -1.647301         2.456658        -1.128279
