19
Iteration:  1895charge 0 multiplicity 1
 O        -0.437200         0.242255        -0.120900
 C        -0.625939         1.475378         0.656099
 C         0.418768         2.617100         0.798796
 C        -0.276747         3.471700         2.013776
 C        -1.225784         2.526149         2.722500
 C        -1.048104         1.102415         2.130302
 C        -1.815585         3.497894         1.769303
 O        -2.516074         2.958335         0.582630
 C        -1.782841         1.922674        -0.176059
 H         0.478453        -0.015163        -0.038176
 H         1.491062         2.099945         1.034404
 H         0.613566         3.307859        -0.029144
 H         0.202431         4.417151         2.284882
 H        -1.350203         2.593633         3.789350
 H        -0.081292         0.723833         2.502186
 H        -1.924046         0.438133         2.249760
 H        -2.316456         4.279767         2.204840
 H        -2.510423         1.196008        -0.471147
 H        -1.321108         2.444519        -1.098245
