19
Iteration:  3285
 O        -0.204417         0.288427        -0.023277
 C        -0.676104         1.377159         0.645678
 C         0.234002         2.573760         0.612961
 C        -0.322263         3.564801         1.650583
 C        -0.988664         2.595002         2.666540
 C        -0.689424         1.173650         2.171038
 C        -1.854240         3.426506         1.803790
 O        -2.726228         2.829961         0.839013
 C        -1.996405         1.940654         0.015261
 H        -0.549498         0.265466        -0.921432
 H         1.233619         2.211491         0.632983
 H         0.222206         2.990752        -0.358298
 H         0.131997         4.463062         1.919258
 H        -1.043198         2.914560         3.682678
 H         0.390944         1.014129         2.380508
 H        -1.479479         0.502803         2.553179
 H        -2.302906         4.281151         2.260829
 H        -2.721119         1.163258        -0.277957
 H        -1.712121         2.528381        -0.905200
