19
Iteration:  1343
 O        -0.113934         0.285775        -0.111178
 C        -0.701985         1.388387         0.634522
 C         0.223754         2.563602         0.726304
 C        -0.343472         3.382992         1.885136
 C        -1.166748         2.426331         2.763561
 C        -0.984183         1.098665         2.208895
 C        -1.835710         3.432115         1.787560
 O        -2.423773         3.191271         0.538087
 C        -2.019821         1.961665        -0.099412
 H         0.605190        -0.002806         0.500950
 H         1.327625         2.326539         0.778737
 H         0.241854         3.198203        -0.191431
 H         0.226805         4.163436         2.163120
 H        -1.165412         2.703432         3.831012
 H        -0.014271         0.806430         2.648848
 H        -1.822030         0.433672         2.315042
 H        -2.474065         4.173007         2.268509
 H        -2.828130         1.229645        -0.102541
 H        -1.788446         2.350317        -1.133698
