19
Iteration:   510charge 0 multiplicity 1
 O        -0.263633         0.302211        -0.127020
 C        -0.625798         1.406843         0.662501
 C         0.437731         2.527626         0.842362
 C        -0.317307         3.385348         1.899124
 C        -1.161614         2.547637         2.678930
 C        -1.038532         1.084461         2.078119
 C        -1.862429         3.472887         1.771209
 O        -2.557439         3.098683         0.584585
 C        -1.893140         1.955997        -0.076274
 H         0.546849        -0.081110         0.211703
 H         1.385792         2.187554         1.116111
 H         0.383383         3.268823         0.060094
 H         0.088823         4.201075         2.299671
 H        -1.185704         2.538881         3.766768
 H        -0.238897         0.625918         2.630863
 H        -2.028085         0.491037         2.211135
 H        -2.267297         4.384931         2.151581
 H        -2.554230         1.055311        -0.142905
 H        -1.697684         2.404392        -1.110189
