19
Iteration:  1364
 O        -0.114066         0.281032         0.005529
 C        -0.723453         1.434630         0.625232
 C         0.229629         2.663603         0.655711
 C        -0.252840         3.418812         1.941145
 C        -1.201521         2.411166         2.725902
 C        -0.986744         1.036089         2.004714
 C        -1.817550         3.469334         1.820211
 O        -2.414807         3.175806         0.551242
 C        -2.051634         1.894221        -0.064494
 H         0.474770         0.026990         0.757314
 H         1.232241         2.257076         0.878853
 H         0.296837         3.241107        -0.277658
 H         0.220897         4.163647         2.438061
 H        -1.345893         2.443472         3.789750
 H        -0.119616         0.540975         2.481450
 H        -1.855067         0.517715         2.206125
 H        -2.283289         4.387338         2.179959
 H        -2.798439         1.085423         0.105632
 H        -1.940143         2.155940        -1.181171
