19
Iteration:  2293
 O        -0.098398         0.245656        -0.064624
 C        -0.598935         1.439165         0.590910
 C         0.246745         2.708369         0.615358
 C        -0.300816         3.391907         1.809995
 C        -1.175767         2.450443         2.718358
 C        -0.972458         1.094138         2.137511
 C        -1.776954         3.420709         1.807461
 O        -2.463266         3.173558         0.564207
 C        -2.068306         1.875278         0.063189
 H        -0.470835        -0.467243         0.478633
 H         1.252888         2.313555         0.919005
 H         0.335685         3.209583        -0.320121
 H         0.351605         4.214734         2.352731
 H        -1.500556         2.517036         3.813045
 H        -0.159158         0.761558         2.787129
 H        -2.071819         0.776639         2.119051
 H        -2.180323         4.330451         2.331524
 H        -2.761744         1.112386         0.428236
 H        -2.271225         2.026722        -1.032599
