19
Iteration:  2930
 O        -0.270248         0.325937        -0.167678
 C        -0.686707         1.404878         0.643396
 C         0.271276         2.723055         0.646009
 C        -0.334889         3.514050         1.814261
 C        -1.176611         2.460975         2.641993
 C        -0.732006         1.097410         2.180874
 C        -1.807631         3.541679         1.692825
 O        -2.385365         3.095810         0.530422
 C        -2.175151         1.634481         0.385480
 H         0.136539         0.657130        -0.969371
 H         1.296133         2.275933         0.758657
 H         0.380304         3.173706        -0.362521
 H         0.227486         4.308372         2.318781
 H        -1.265104         2.535646         3.741757
 H         0.246088         0.782331         2.552843
 H        -1.369947         0.234590         2.199125
 H        -2.525424         4.310640         2.235170
 H        -2.678668         1.023905         1.114658
 H        -2.488468         1.494427        -0.663048
