19
Iteration:   806charge 0 multiplicity 1
 O        -0.305618         0.285266        -0.088557
 C        -0.645396         1.476702         0.657845
 C         0.403133         2.611821         0.797457
 C        -0.265207         3.499385         1.932848
 C        -1.110694         2.456087         2.684865
 C        -1.086601         1.102989         2.076219
 C        -1.861761         3.416607         1.738575
 O        -2.520435         2.958678         0.658786
 C        -1.864789         1.993578        -0.128774
 H         0.635993         0.026957         0.144182
 H         1.404847         2.301553         1.207056
 H         0.399556         3.255051        -0.091413
 H         0.110874         4.484854         2.222426
 H        -1.431407         2.584810         3.692957
 H        -0.383940         0.431972         2.617254
 H        -2.165090         0.730976         2.060683
 H        -2.410586         4.296581         2.116276
 H        -2.460773         1.089414        -0.315663
 H        -1.542251         2.264329        -1.092177
