19
Iteration:   452
 O        -0.185849         0.312605        -0.191623
 C        -0.657808         1.404063         0.637725
 C         0.271830         2.662426         0.754522
 C        -0.259789         3.461593         1.919692
 C        -1.149913         2.470852         2.829315
 C        -1.119948         1.063396         2.213320
 C        -1.801760         3.408122         1.796048
 O        -2.386165         3.137300         0.451969
 C        -2.003269         1.919066        -0.053845
 H         0.411564        -0.278887         0.299470
 H         1.349559         2.420803         0.803334
 H         0.310291         3.280129        -0.113312
 H         0.341068         4.235467         2.498955
 H        -1.480799         2.521713         3.895958
 H        -0.480938         0.292690         2.750371
 H        -2.066558         0.596601         2.123210
 H        -2.393379         4.265103         2.282061
 H        -2.612676         0.967086         0.111042
 H        -1.805523         1.894244        -1.195197
