19
Iteration:  2533charge 0 multiplicity 1
 O        -0.151109         0.225840         0.013279
 C        -0.639280         1.503339         0.546173
 C         0.332806         2.740927         0.649398
 C        -0.305667         3.533567         1.787417
 C        -1.062746         2.469522         2.631402
 C        -0.821205         1.077630         2.127309
 C        -1.791609         3.466400         1.739273
 O        -2.583038         3.050941         0.641715
 C        -2.152640         1.806070         0.111692
 H        -0.886118        -0.365068         0.198814
 H         1.366739         2.394987         0.671202
 H         0.441123         3.368502        -0.256584
 H         0.252060         4.361294         2.146034
 H        -1.220632         2.666995         3.680279
 H         0.085674         0.622379         2.487896
 H        -1.654729         0.385412         2.415149
 H        -2.516598         4.148497         2.293618
 H        -2.860244         0.997803         0.497459
 H        -2.201336         1.884419        -0.935330
