19
Iteration:  2138
 O        -0.256635         0.281467        -0.236338
 C        -0.620907         1.429235         0.656875
 C         0.444661         2.506494         0.841348
 C        -0.279205         3.451485         1.833915
 C        -1.152809         2.564056         2.769051
 C        -1.103853         1.169506         2.146878
 C        -1.810651         3.515024         1.783615
 O        -2.584682         2.995339         0.616223
 C        -1.849370         1.953481        -0.078695
 H        -0.264866        -0.504078         0.364056
 H         1.385068         2.186276         1.263118
 H         0.649039         3.187615         0.030162
 H         0.230749         4.267669         2.172735
 H        -1.368955         2.618806         3.806993
 H        -0.412094         0.522186         2.739561
 H        -2.037228         0.505821         2.108742
 H        -2.277065         4.439715         1.976125
 H        -2.528685         1.104875         0.024585
 H        -1.681640         2.233336        -1.214251
