19
Iteration:  2893
 O        -0.091442         0.287452        -0.105895
 C        -0.744658         1.401564         0.674724
 C         0.136626         2.584311         0.568924
 C        -0.325231         3.530521         1.751135
 C        -1.040802         2.509547         2.769870
 C        -0.788226         1.092846         2.235745
 C        -1.758877         3.513524         1.775592
 O        -2.511323         3.108698         0.612747
 C        -2.122537         1.746621         0.112952
 H        -0.049013         0.530801        -1.047721
 H         1.101693         2.203984         0.679230
 H        -0.108063         3.202196        -0.370987
 H         0.167776         4.476430         2.041825
 H        -1.098305         2.658625         3.844778
 H         0.137777         0.634947         2.643609
 H        -1.680722         0.452613         2.517694
 H        -2.303137         4.125054         2.393178
 H        -2.891599         0.975117         0.288016
 H        -2.132648         1.914572        -0.970036
