19
Iteration:  4893
 O        -0.236119         0.207496        -0.094575
 C        -0.625755         1.444504         0.606914
 C         0.217610         2.753171         0.503897
 C        -0.310346         3.538597         1.613762
 C        -0.917729         2.671842         2.752181
 C        -0.825658         1.230004         2.199443
 C        -1.773017         3.445748         1.770012
 O        -2.683659         2.763318         0.922750
 C        -2.068863         1.811883         0.004515
 H         0.092933        -0.385001         0.587919
 H         1.257127         2.490270         0.460746
 H         0.047623         3.336304        -0.426578
 H         0.291950         4.404985         1.903883
 H        -0.907858         3.022289         3.781370
 H         0.086748         0.783884         2.443111
 H        -1.696046         0.509026         2.350807
 H        -2.316550         4.374340         2.077130
 H        -2.678276         0.975117        -0.016597
 H        -2.052658         2.256239        -1.020835
