19
Iteration:   170
 O        -0.233044         0.254372        -0.150644
 C        -0.661363         1.347650         0.687994
 C         0.268106         2.656946         0.825300
 C        -0.358443         3.447427         1.914273
 C        -1.120383         2.447751         2.733179
 C        -0.985757         1.025200         2.107054
 C        -1.854026         3.535654         1.793587
 O        -2.442909         3.204921         0.485901
 C        -1.934681         1.865516        -0.046451
 H         0.505855        -0.207163         0.313393
 H         1.224905         2.298401         1.112671
 H         0.581187         3.130216        -0.164715
 H         0.162700         4.434315         2.218102
 H        -1.171416         2.568624         3.782645
 H        -0.136801         0.578013         2.524259
 H        -1.884173         0.296784         2.207441
 H        -2.321827         4.332989         2.276286
 H        -2.845148         1.212573         0.024059
 H        -1.775917         2.156350        -1.052125
