19
Iteration:   942
 O        -0.271992         0.358955        -0.146206
 C        -0.639868         1.385965         0.694728
 C         0.364102         2.512715         0.774943
 C        -0.322181         3.556020         1.841283
 C        -1.269953         2.407539         2.751808
 C        -0.924078         1.115754         2.179449
 C        -1.808773         3.384900         1.822297
 O        -2.514452         3.084667         0.545915
 C        -1.902580         1.967439        -0.110820
 H         0.511239        -0.030259         0.271020
 H         1.343297         2.173272         1.161080
 H         0.386695         3.025651        -0.209804
 H         0.198546         4.440327         1.986573
 H        -1.478308         2.513562         3.864721
 H        -0.035620         0.667179         2.655303
 H        -1.861906         0.487864         2.300244
 H        -2.444516         4.278580         2.272947
 H        -2.657043         1.239962        -0.245544
 H        -1.575739         2.203799        -1.107745
