19
Iteration:  1276charge 0 multiplicity 1
 O        -0.145566         0.333958        -0.119368
 C        -0.740998         1.405355         0.627230
 C         0.303890         2.508655         0.877352
 C        -0.289749         3.449665         1.825897
 C        -1.156464         2.542352         2.704099
 C        -1.023796         1.084403         2.098794
 C        -1.796427         3.519315         1.740256
 O        -2.579204         3.003108         0.649641
 C        -1.944501         1.983406        -0.095987
 H         0.679907        -0.012706         0.286474
 H         1.299888         2.175080         1.246478
 H         0.495344         2.822165        -0.162619
 H         0.230280         4.287419         2.218682
 H        -1.102972         2.509276         3.750189
 H        -0.073968         0.660681         2.464648
 H        -1.826889         0.426819         2.264885
 H        -2.343261         4.303988         2.251717
 H        -2.647681         1.185650        -0.277535
 H        -1.578535         2.392812        -1.068848
