19
Iteration:  3932
 O        -0.170356         0.263013        -0.070357
 C        -0.716601         1.416256         0.636689
 C         0.093813         2.732706         0.362162
 C        -0.311700         3.574492         1.575434
 C        -0.861224         2.681284         2.707513
 C        -0.653770         1.268511         2.148685
 C        -1.797692         3.442507         1.856638
 O        -2.741612         2.741550         0.918390
 C        -2.056316         1.771092         0.128711
 H        -0.216098        -0.449220         0.611229
 H         1.122894         2.569096         0.336858
 H        -0.023325         3.183845        -0.646128
 H         0.111899         4.555648         1.678070
 H        -0.928078         2.843693         3.812636
 H         0.428294         1.043138         2.367429
 H        -1.450721         0.561083         2.406045
 H        -2.370423         4.054099         2.433855
 H        -2.717053         0.806196         0.118510
 H        -1.959566         2.170225        -0.877005
