19
Iteration:   754charge 0 multiplicity 1
 O        -0.115283         0.325014        -0.084431
 C        -0.695862         1.446209         0.655091
 C         0.392000         2.547553         0.812058
 C        -0.298539         3.450600         1.767689
 C        -1.205396         2.397439         2.687621
 C        -1.036980         1.023247         2.103269
 C        -1.754858         3.482170         1.785845
 O        -2.603410         3.144308         0.616500
 C        -2.024054         1.973093        -0.053590
 H         0.639755         0.039062         0.513781
 H         1.347958         2.234745         1.324482
 H         0.659203         3.180511        -0.124793
 H         0.395903         4.230373         2.239012
 H        -1.349095         2.590107         3.729172
 H        -0.311763         0.425116         2.616489
 H        -1.990330         0.352231         2.070596
 H        -2.299609         4.288499         2.195295
 H        -2.681035         1.123871        -0.243731
 H        -1.665573         2.246896        -1.140489
