19
Iteration:  1289charge 0 multiplicity 1
 O        -0.239443         0.336104        -0.186133
 C        -0.617974         1.443544         0.618413
 C         0.451870         2.535604         0.812645
 C        -0.308897         3.410118         1.880025
 C        -1.156430         2.544275         2.809918
 C        -1.027503         1.118649         2.109497
 C        -1.860251         3.502780         1.771374
 O        -2.609976         3.048817         0.622159
 C        -1.938627         1.842615        -0.116301
 H         0.586172         0.092213         0.246277
 H         1.250411         1.942075         1.300660
 H         0.829423         3.270641         0.084452
 H         0.170408         4.237682         2.142825
 H        -1.311753         2.811772         3.824522
 H        -0.154188         0.659656         2.564054
 H        -1.920769         0.430797         2.237757
 H        -2.221159         4.495610         1.971501
 H        -2.591891         1.004707        -0.105503
 H        -1.792780         2.185192        -1.082547
