19
Iteration:  4368charge 0 multiplicity 1
 O        -0.328020         0.206472        -0.084735
 C        -0.664251         1.369518         0.669237
 C         0.208525         2.750660         0.469391
 C        -0.343043         3.517555         1.624369
 C        -0.923101         2.662799         2.651610
 C        -0.633251         1.239795         2.171290
 C        -1.867089         3.418926         1.805017
 O        -2.655431         2.847472         0.855779
 C        -2.052588         1.802834         0.122139
 H         0.595099        -0.015141         0.208628
 H         1.275490         2.566835         0.485675
 H        -0.090760         3.240093        -0.404083
 H         0.096966         4.498676         1.835424
 H        -1.001917         2.961413         3.673544
 H         0.349724         0.892297         2.534675
 H        -1.373659         0.502045         2.612933
 H        -2.420595         4.271991         2.181526
 H        -2.729344         0.878866         0.021566
 H        -1.910400         2.243541        -0.844772
