19
Iteration:  1689charge 0 multiplicity 1
 O        -0.167533         0.271231         0.002189
 C        -0.718575         1.398587         0.623612
 C         0.399892         2.557914         0.820895
 C        -0.255537         3.412707         1.844405
 C        -1.173490         2.476732         2.648402
 C        -1.068501         1.071045         1.993008
 C        -1.773197         3.494330         1.763431
 O        -2.613632         3.015500         0.695638
 C        -1.920712         2.071800        -0.143341
 H         0.570552         0.027704         0.629425
 H         1.256137         2.042950         1.208757
 H         0.615370         3.033053        -0.142309
 H         0.239501         4.301800         2.286148
 H        -1.435191         2.523278         3.756416
 H        -0.262017         0.574620         2.456217
 H        -2.047305         0.536872         2.181763
 H        -2.147702         4.511508         2.103212
 H        -2.725229         1.396780        -0.501130
 H        -1.680353         2.721198        -0.956362
