19
Iteration:  1596charge 0 multiplicity 1
 O         0.001415         0.240661        -0.042085
 C        -0.628325         1.377091         0.559984
 C         0.233418         2.634323         0.680274
 C        -0.290827         3.407028         1.907046
 C        -1.268000         2.409102         2.627240
 C        -1.080150         0.982818         2.094820
 C        -1.775024         3.564632         1.816407
 O        -2.438163         3.274783         0.557627
 C        -2.082234         1.895253         0.050874
 H         0.755368         0.050827         0.498178
 H         1.162685         2.338594         1.071780
 H         0.152485         3.148821        -0.283445
 H         0.360630         4.189090         2.399364
 H        -1.456038         2.427224         3.685052
 H        -0.227646         0.408906         2.726200
 H        -1.981236         0.425259         2.050585
 H        -2.161892         4.391121         2.223852
 H        -2.908155         1.222158         0.433945
 H        -2.239191         1.973850        -1.109080
