19
Iteration:  4507
 O        -0.145428         0.270570        -0.084257
 C        -0.702167         1.357078         0.702725
 C         0.137210         2.657335         0.473309
 C        -0.315871         3.516413         1.671138
 C        -0.989703         2.623256         2.711097
 C        -0.735208         1.129445         2.218081
 C        -1.841937         3.554773         1.777931
 O        -2.573532         2.963009         0.762588
 C        -2.052195         1.738022         0.140336
 H        -0.549397         0.281525        -0.968719
 H         1.229788         2.418678         0.583096
 H        -0.149123         3.091525        -0.507133
 H         0.241616         4.362392         2.106540
 H        -1.065298         2.741326         3.770331
 H         0.168875         0.774153         2.657136
 H        -1.539766         0.380452         2.536784
 H        -2.347414         4.423156         2.093904
 H        -2.749075         0.941203         0.315521
 H        -1.965968         1.988367        -0.974206
