19
Iteration:  1873
 O        -0.329275         0.216930        -0.113998
 C        -0.603906         1.360738         0.651001
 C         0.397686         2.583372         0.801972
 C        -0.420087         3.443627         1.834626
 C        -1.271134         2.467773         2.700544
 C        -0.925606         1.068089         2.122579
 C        -1.874582         3.484202         1.812896
 O        -2.476443         3.131831         0.545382
 C        -1.864545         2.054098        -0.051149
 H         0.529538        -0.208899         0.164589
 H         1.433635         2.228892         1.292894
 H         0.721140         3.089888        -0.123001
 H         0.174677         4.170878         2.376993
 H        -1.278628         2.680730         3.751180
 H        -0.032696         0.642733         2.638053
 H        -1.852185         0.473895         2.164783
 H        -2.159676         4.267014         2.376415
 H        -2.666316         1.330870        -0.118957
 H        -1.475716         2.261967        -1.109151
