19
Iteration:  3357charge 0 multiplicity 1
 O        -0.012842         0.378176        -0.161516
 C        -0.746178         1.367596         0.680759
 C         0.033221         2.687645         0.538259
 C        -0.291340         3.470854         1.722436
 C        -0.962287         2.553910         2.727205
 C        -0.747574         1.113965         2.206795
 C        -1.793117         3.481479         1.760793
 O        -2.573891         3.055653         0.714614
 C        -2.220197         1.683923         0.120491
 H         0.274957        -0.252372         0.529320
 H         1.143958         2.470941         0.367475
 H        -0.250412         3.314748        -0.393617
 H         0.327572         4.327839         2.029879
 H        -0.838298         2.724398         3.746864
 H         0.226947         0.779422         2.465812
 H        -1.493285         0.407308         2.416001
 H        -2.234002         4.395323         2.066743
 H        -2.822164         0.862308         0.571060
 H        -2.447826         1.779440        -0.938670
