19
Iteration:  3298charge 0 multiplicity 1
 O        -0.292538         0.199440        -0.116710
 C        -0.723388         1.414353         0.716527
 C         0.281259         2.654684         0.582109
 C        -0.283852         3.595183         1.700718
 C        -0.971657         2.639289         2.678415
 C        -0.625343         1.216894         2.228855
 C        -1.916690         3.382770         1.785935
 O        -2.707054         2.886263         0.786170
 C        -2.023827         1.852624         0.011218
 H        -0.114697         0.607193        -1.017829
 H         1.328643         2.358046         0.946778
 H         0.189566         3.112779        -0.411876
 H         0.310334         4.419129         2.049682
 H        -1.048965         2.587707         3.825997
 H         0.294396         0.781532         2.591022
 H        -1.200198         0.325416         2.636042
 H        -2.496591         4.212229         2.233845
 H        -2.708482         1.004066        -0.186351
 H        -1.641869         2.203347        -1.022412
