19
Iteration:  3509charge 0 multiplicity 1
 O        -0.108450         0.302085        -0.023843
 C        -0.688702         1.484964         0.579631
 C         0.232361         2.646888         0.454070
 C        -0.313033         3.550353         1.601584
 C        -0.902231         2.649746         2.713406
 C        -0.736296         1.270576         2.157206
 C        -1.841198         3.419155         1.798904
 O        -2.749839         2.742020         0.966410
 C        -2.098738         1.806293         0.054183
 H        -0.837012        -0.274344        -0.342956
 H         1.335452         2.467690         0.542344
 H         0.029571         3.065296        -0.553704
 H         0.149493         4.502048         1.746264
 H        -0.762837         2.857560         3.738731
 H         0.304572         0.804491         2.477031
 H        -1.525801         0.483209         2.520961
 H        -2.411458         4.265816         2.239294
 H        -2.727517         0.865001        -0.010033
 H        -1.880263         2.374909        -0.939579
