19
Iteration:  4587
 O        -0.282354         0.147704        -0.050516
 C        -0.661204         1.405353         0.618338
 C         0.264541         2.696023         0.475210
 C        -0.357240         3.503705         1.638932
 C        -1.051159         2.598011         2.720738
 C        -0.669331         1.148100         2.193621
 C        -1.846429         3.500306         1.769433
 O        -2.677378         2.923033         0.805965
 C        -2.033792         1.920503         0.095144
 H         0.626045        -0.027358         0.238445
 H         1.418463         2.464463         0.644999
 H         0.224052         3.192329        -0.495908
 H         0.112198         4.381724         2.062948
 H        -0.714520         2.751629         3.778443
 H         0.250987         0.907438         2.646844
 H        -1.452537         0.349858         2.407882
 H        -2.571691         4.186595         2.303394
 H        -2.732812         1.067023        -0.141145
 H        -1.795002         2.382212        -0.873751
