19
Iteration:  4962charge 0 multiplicity 1
 O        -0.329372         0.355105        -0.160687
 C        -0.675733         1.438444         0.688774
 C         0.172719         2.753671         0.491904
 C        -0.192070         3.547535         1.698817
 C        -1.030349         2.672018         2.699144
 C        -0.782531         1.209113         2.195191
 C        -1.782127         3.448511         1.780020
 O        -2.576669         2.834673         0.739151
 C        -2.084774         1.584847         0.171412
 H         0.580627         0.132298         0.117719
 H         1.269394         2.615179         0.441674
 H        -0.059446         3.169768        -0.463241
 H         0.536227         4.199382         2.179580
 H        -1.055845         3.088866         3.753849
 H         0.133132         0.823560         2.617996
 H        -1.733606         0.473868         2.351569
 H        -2.219569         4.341284         2.190096
 H        -2.550560         0.660432         0.590295
 H        -2.146084         1.666153        -0.946241
