19
Iteration:  3709charge 0 multiplicity 1
 O        -0.001659         0.292044         0.032534
 C        -0.698297         1.368013         0.639725
 C         0.066948         2.656782         0.402874
 C        -0.317078         3.579832         1.578206
 C        -0.848719         2.672326         2.645565
 C        -0.700079         1.254593         2.160613
 C        -1.829755         3.423339         1.846585
 O        -2.798788         2.774042         0.980515
 C        -2.105877         1.827594         0.015773
 H        -0.532379        -0.142412        -0.641459
 H         1.079282         2.336115         0.412140
 H        -0.207667         3.224689        -0.499754
 H         0.322922         4.462560         1.676576
 H        -0.603367         2.902937         3.693205
 H         0.291830         0.752813         2.501843
 H        -1.354747         0.541427         2.600793
 H        -2.313422         4.164630         2.432305
 H        -2.847097         1.006708        -0.128155
 H        -2.066203         2.355437        -0.918046
