19
Iteration:  3902
 O        -0.213687         0.315044        -0.188871
 C        -0.626096         1.458293         0.595553
 C         0.228470         2.770969         0.465883
 C        -0.399581         3.598820         1.515637
 C        -0.825470         2.715628         2.679648
 C        -0.665497         1.209072         2.156547
 C        -1.833751         3.490008         1.782485
 O        -2.714781         2.745597         0.904542
 C        -2.122866         1.638879         0.340105
 H        -0.686364        -0.475182         0.113465
 H         1.191280         2.357402         1.008110
 H         0.478399         3.176578        -0.526790
 H        -0.071311         4.635125         1.741315
 H        -0.734589         2.904240         3.738378
 H         0.181550         0.646167         2.456348
 H        -1.664365         0.605634         2.373033
 H        -2.439180         4.200740         2.257470
 H        -2.582390         0.714306         0.585272
 H        -2.112751         1.744346        -0.834310
