19
Iteration:  1803charge 0 multiplicity 1
 O        -0.230364         0.258616        -0.156484
 C        -0.635695         1.376564         0.652584
 C         0.250341         2.635160         0.763038
 C        -0.270793         3.418257         1.969388
 C        -1.204363         2.432843         2.683001
 C        -1.066261         1.067973         2.122955
 C        -1.812322         3.527605         1.760609
 O        -2.372438         3.180508         0.520549
 C        -1.936996         1.893764         0.033657
 H         0.513747        -0.273683         0.240920
 H         1.387646         2.434656         0.847358
 H         0.210605         3.243750        -0.201606
 H         0.105562         4.327990         2.435514
 H        -1.395903         2.587440         3.763726
 H        -0.392669         0.430306         2.719297
 H        -2.027785         0.670192         1.998526
 H        -2.577886         4.291729         2.251682
 H        -2.691772         1.049200         0.067520
 H        -1.601317         2.049564        -0.984242
