19
Iteration:  2849charge 0 multiplicity 1
 O        -0.289279         0.139942         0.073277
 C        -0.618952         1.424247         0.586027
 C         0.382209         2.770808         0.507339
 C        -0.276998         3.553692         1.712826
 C        -0.986305         2.580254         2.760073
 C        -0.906817         1.194185         2.048741
 C        -1.804800         3.424499         1.837566
 O        -2.716537         2.806560         0.861178
 C        -1.952609         1.960352        -0.009598
 H        -0.115498         0.140783        -0.879377
 H         1.305593         2.515953         0.891567
 H         0.378980         3.254961        -0.546909
 H         0.048349         4.572043         1.795362
 H        -1.131312         2.674346         3.823869
 H        -0.155858         0.497497         2.434192
 H        -1.869155         0.595579         2.061704
 H        -2.156951         4.314704         2.131294
 H        -2.629513         1.124906        -0.131457
 H        -1.846068         2.316156        -1.033947
