19
Iteration:  4493
 O        -0.205374         0.222221         0.044481
 C        -0.690600         1.418834         0.609109
 C         0.249460         2.702758         0.547346
 C        -0.359763         3.561341         1.609791
 C        -0.989426         2.539100         2.699013
 C        -0.719712         1.171751         2.181859
 C        -1.792838         3.412500         1.852426
 O        -2.631749         3.013585         0.699125
 C        -2.169813         1.737530         0.112461
 H         0.032689         0.459549        -0.885122
 H         1.222526         2.426460         0.767513
 H         0.331369         3.194223        -0.454137
 H         0.279968         4.476372         1.871263
 H        -0.692148         2.845312         3.706938
 H         0.368787         0.894990         2.361677
 H        -1.363436         0.385736         2.453923
 H        -2.324516         4.249662         2.428841
 H        -2.869727         0.945777         0.353567
 H        -2.159509         1.876724        -1.042940
