19
Iteration:  3796charge 0 multiplicity 1
 O        -0.188923         0.368724        -0.158930
 C        -0.700090         1.349866         0.716126
 C         0.118130         2.691800         0.412094
 C        -0.317695         3.577133         1.546727
 C        -0.922628         2.657404         2.653380
 C        -0.518710         1.250132         2.199276
 C        -1.877313         3.447525         1.769126
 O        -2.724513         2.818176         0.871308
 C        -2.147436         1.707862         0.254429
 H         0.311433        -0.288561         0.338946
 H         1.137200         2.370141         0.362327
 H         0.041677         3.115649        -0.588178
 H         0.233693         4.482957         1.894494
 H        -0.898458         2.789006         3.712345
 H         0.603365         1.014183         2.520274
 H        -1.117387         0.504011         2.695293
 H        -2.531366         4.238254         2.259566
 H        -2.878804         0.783601         0.386116
 H        -2.138430         1.878548        -0.798921
