19
Iteration:  4041charge 0 multiplicity 1
 O        -0.040697         0.279748         0.019191
 C        -0.742927         1.401176         0.635459
 C         0.152988         2.680290         0.398496
 C        -0.448416         3.621843         1.442228
 C        -0.838682         2.609363         2.668032
 C        -0.626571         1.154235         2.172253
 C        -1.864189         3.439209         1.879225
 O        -2.756142         2.913613         0.897190
 C        -2.107748         1.760620         0.176095
 H        -0.705858        -0.258811        -0.488203
 H         1.114555         2.288411         0.764167
 H         0.164501         3.070872        -0.707658
 H         0.127177         4.531309         1.807170
 H        -0.615060         2.992702         3.655087
 H         0.567715         0.845765         2.132198
 H        -1.222849         0.429370         2.691474
 H        -2.247053         4.247048         2.367765
 H        -2.799092         0.801023         0.308781
 H        -2.163461         2.016113        -0.849348
