19
Iteration:  3794charge 0 multiplicity 1
 O        -0.192652         0.381861        -0.175579
 C        -0.690753         1.355686         0.745632
 C         0.106396         2.678398         0.407859
 C        -0.326000         3.570193         1.528875
 C        -0.926779         2.644196         2.656164
 C        -0.512658         1.251606         2.221453
 C        -1.879173         3.460657         1.774437
 O        -2.725556         2.808867         0.872001
 C        -2.144544         1.711488         0.234829
 H         0.345870        -0.234284         0.370233
 H         1.171367         2.310017         0.351644
 H         0.104441         3.116690        -0.547644
 H         0.275901         4.401502         1.897480
 H        -0.933708         2.834951         3.737868
 H         0.576723         1.095427         2.461156
 H        -1.099833         0.506267         2.779935
 H        -2.421210         4.200357         2.249106
 H        -2.890604         0.815924         0.382951
 H        -2.197689         1.893373        -0.862777
