19
Iteration:  3841
 O        -0.097100         0.285476        -0.026553
 C        -0.653052         1.429562         0.629306
 C         0.076803         2.767237         0.310340
 C        -0.381622         3.647666         1.622946
 C        -0.828705         2.647524         2.625826
 C        -0.680337         1.239526         2.106372
 C        -1.864470         3.384344         1.925234
 O        -2.590102         2.827345         0.853041
 C        -2.171864         1.621967         0.221537
 H        -0.708561        -0.410200         0.236660
 H         1.095747         2.651104         0.211173
 H        -0.191781         3.273489        -0.626050
 H         0.033758         4.653580         1.832846
 H        -0.694648         2.988039         3.636212
 H         0.339506         0.791084         2.440521
 H        -1.472453         0.592918         2.418815
 H        -2.410964         4.228878         2.529370
 H        -2.965554         0.764579         0.399670
 H        -2.214695         1.861667        -0.802270
