19
Iteration:  3964charge 0 multiplicity 1
 O        -0.022466         0.286004        -0.110542
 C        -0.715323         1.357288         0.678292
 C         0.201409         2.663279         0.411682
 C        -0.365871         3.582631         1.482808
 C        -0.812603         2.637902         2.628418
 C        -0.722585         1.214613         2.149645
 C        -1.839360         3.489906         1.864278
 O        -2.820597         2.836905         0.957888
 C        -2.191617         1.802822         0.134065
 H         0.126490        -0.371346         0.561818
 H         1.196075         2.590341         0.769255
 H         0.107473         2.991059        -0.655531
 H         0.143262         4.517406         1.598892
 H        -0.610466         2.979485         3.669269
 H         0.311097         0.892064         2.595210
 H        -1.272292         0.436816         2.579875
 H        -2.293519         4.126001         2.554200
 H        -2.877188         0.862761         0.242732
 H        -2.229312         2.083931        -0.869177
