19
Iteration:  2941
 O        -0.235844         0.274754        -0.122322
 C        -0.649908         1.398138         0.639557
 C         0.208202         2.639755         0.682735
 C        -0.327348         3.514174         1.795461
 C        -1.146127         2.477317         2.698128
 C        -0.624696         1.087538         2.092355
 C        -1.819423         3.452531         1.759483
 O        -2.457391         3.136186         0.500389
 C        -2.211081         1.752483         0.290598
 H         0.101196         0.662395        -0.950553
 H         1.206636         2.434280         1.129038
 H         0.227576         3.257408        -0.238637
 H         0.332705         4.311515         2.119796
 H        -1.517263         2.715725         3.697864
 H         0.367472         0.881555         2.506038
 H        -1.307020         0.318666         2.412648
 H        -2.275879         4.431633         2.222891
 H        -2.880783         1.302939         1.006382
 H        -2.548545         1.302661        -0.668326
