19
Iteration:  1260
 O        -0.130456         0.307241        -0.069125
 C        -0.686880         1.370466         0.672839
 C         0.287349         2.564129         0.652094
 C        -0.346150         3.495010         1.752003
 C        -1.165764         2.466940         2.665979
 C        -1.053213         1.051933         2.155234
 C        -1.817744         3.446451         1.798583
 O        -2.530944         3.030206         0.745405
 C        -1.881630         2.035987        -0.123028
 H         0.635635         0.061170         0.439971
 H         1.192031         2.122540         1.086763
 H         0.545607         3.136451        -0.242959
 H         0.338712         4.245741         2.344723
 H        -1.477405         2.755802         3.726214
 H        -0.449576         0.393666         2.814709
 H        -2.068291         0.495923         2.326141
 H        -2.307563         4.320059         2.237120
 H        -2.694186         1.364291        -0.615449
 H        -1.398264         2.591100        -1.030630
