19
Iteration:  1382charge 0 multiplicity 1
 O        -0.200527         0.300330        -0.131537
 C        -0.600455         1.416680         0.621658
 C         0.283827         2.696014         0.766165
 C        -0.322972         3.389307         1.867427
 C        -1.180104         2.471993         2.684979
 C        -1.091941         1.070006         2.087506
 C        -1.811868         3.548535         1.755978
 O        -2.407214         3.102066         0.581612
 C        -1.954044         1.856207         0.033856
 H         0.436980        -0.246750         0.378281
 H         1.305597         2.451115         1.032038
 H         0.089790         3.378099        -0.058959
 H         0.292971         4.170106         2.459350
 H        -1.205798         2.599468         3.721641
 H        -0.351672         0.402443         2.621322
 H        -1.973298         0.277673         2.019734
 H        -2.379151         4.220528         2.352454
 H        -2.742506         1.113091         0.304136
 H        -1.846780         1.877573        -1.058682
