19
Iteration:  3992
 O        -0.239314         0.364217        -0.164968
 C        -0.649765         1.451323         0.630843
 C         0.240158         2.738424         0.458218
 C        -0.349625         3.574410         1.561002
 C        -0.877374         2.698098         2.682511
 C        -0.743677         1.282473         2.134627
 C        -1.800171         3.479777         1.766915
 O        -2.647577         2.682350         0.944817
 C        -2.117477         1.635231         0.225569
 H        -0.495732        -0.473209         0.246352
 H         1.325341         2.578227         0.799426
 H         0.075562         3.153599        -0.520771
 H         0.074275         4.566646         1.734501
 H        -0.632497         2.946818         3.722063
 H         0.087221         0.820328         2.643312
 H        -1.603375         0.565096         2.398825
 H        -2.371166         4.449372         2.164504
 H        -2.575534         0.731282         0.540376
 H        -2.350569         1.655955        -0.927308
