19
Iteration:  4717charge 0 multiplicity 1
 O        -0.328152         0.240165        -0.146611
 C        -0.615451         1.417683         0.651791
 C         0.260538         2.742209         0.552902
 C        -0.344154         3.554004         1.681803
 C        -0.976182         2.587124         2.665901
 C        -0.717030         1.137129         2.169388
 C        -1.849643         3.498799         1.779079
 O        -2.571079         2.940132         0.738698
 C        -2.100239         1.752209         0.151065
 H         0.422695        -0.180718         0.284541
 H         1.277024         2.641486         0.815607
 H         0.149837         3.129002        -0.427935
 H        -0.043612         4.591725         1.957427
 H        -0.904086         2.737469         3.765468
 H         0.156911         0.726190         2.649873
 H        -1.587587         0.359946         2.467310
 H        -2.472458         4.204760         2.391093
 H        -2.665510         0.963976         0.589039
 H        -2.076786         1.730162        -1.001528
