19
Iteration:   127charge 0 multiplicity 1
 O        -0.281333         0.336478        -0.173827
 C        -0.657731         1.426231         0.649942
 C         0.406104         2.546530         0.865448
 C        -0.308690         3.395263         1.928576
 C        -1.190746         2.537875         2.700972
 C        -1.026205         1.049739         2.138396
 C        -1.760582         3.559506         1.698849
 O        -2.592035         3.024954         0.587219
 C        -1.903497         1.952145        -0.048351
 H         0.553176        -0.023015         0.266138
 H         1.406779         2.236840         1.146359
 H         0.527698         3.143596        -0.091883
 H         0.392632         4.261125         2.310524
 H        -1.373099         2.499750         3.735274
 H        -0.107214         0.565606         2.563892
 H        -1.958042         0.360413         2.257628
 H        -2.131204         4.505189         1.957734
 H        -2.601012         0.992371        -0.020118
 H        -1.681889         2.130691        -1.157351
