19
Iteration:   758charge 0 multiplicity 1
 O        -0.097024         0.332832        -0.090143
 C        -0.662212         1.384515         0.657494
 C         0.383222         2.548161         0.792055
 C        -0.292201         3.438897         1.786881
 C        -1.215741         2.416072         2.724097
 C        -1.056502         1.060177         2.101211
 C        -1.790115         3.470059         1.754081
 O        -2.587712         3.126048         0.628776
 C        -2.003356         2.007985        -0.065450
 H         0.619690         0.014473         0.439470
 H         1.287535         2.095089         1.158453
 H         0.493783         3.022907        -0.161461
 H         0.320714         4.233763         2.238853
 H        -1.398157         2.695792         3.768441
 H        -0.310639         0.433823         2.638018
 H        -1.949062         0.525305         2.018266
 H        -2.190499         4.284452         2.401991
 H        -2.688578         1.148982        -0.222911
 H        -1.820905         2.356368        -1.112753
