19
Iteration:   640
 O        -0.192659         0.275131        -0.125699
 C        -0.648083         1.420339         0.638118
 C         0.304735         2.564400         0.754339
 C        -0.266645         3.470322         1.934138
 C        -1.223334         2.483998         2.657495
 C        -1.019454         1.059065         2.056620
 C        -1.802319         3.521879         1.780450
 O        -2.516562         3.151018         0.580728
 C        -1.942910         1.879125        -0.010025
 H         0.572365        -0.103479         0.396856
 H         1.314560         2.182343         1.152459
 H         0.594043         3.210740        -0.047626
 H         0.183223         4.200902         2.431770
 H        -1.479441         2.475257         3.702169
 H        -0.172719         0.555049         2.588178
 H        -1.931977         0.476236         2.149092
 H        -2.223948         4.294831         2.376025
 H        -2.777329         1.147068         0.067143
 H        -1.789712         2.018581        -1.046715
