19
Iteration:   702
 O        -0.257552         0.333537        -0.234706
 C        -0.684902         1.320546         0.714159
 C         0.287457         2.691050         0.707611
 C        -0.335636         3.412574         1.948095
 C        -1.239244         2.453238         2.715625
 C        -1.049454         1.027147         2.234953
 C        -1.789614         3.518948         1.771956
 O        -2.376624         3.135835         0.542184
 C        -1.879166         1.881060        -0.012117
 H         0.442647        -0.320215         0.043007
 H         1.307934         2.484365         0.754101
 H         0.082970         3.274543        -0.173350
 H         0.082338         4.338759         2.551273
 H        -1.244061         2.718570         3.741272
 H        -0.207750         0.615335         2.792973
 H        -1.830433         0.316424         2.326568
 H        -2.341332         4.366349         1.889058
 H        -2.511593         0.997478         0.021761
 H        -1.580066         2.106662        -1.042357
