19
Iteration:   499
 O        -0.230814         0.260091        -0.139689
 C        -0.608143         1.421420         0.634339
 C         0.455472         2.572168         0.825728
 C        -0.271448         3.391527         1.879206
 C        -1.291902         2.428393         2.687993
 C        -0.947786         1.127884         2.168428
 C        -1.828340         3.445291         1.704336
 O        -2.610251         3.185721         0.605811
 C        -1.961201         1.987397        -0.047267
 H         0.544817        -0.164823         0.332790
 H         1.362689         2.160736         1.157298
 H         0.774482         2.996808        -0.134358
 H         0.126391         4.241814         2.206460
 H        -1.549000         2.569681         3.751395
 H        -0.153039         0.560859         2.622023
 H        -1.892833         0.449555         2.132905
 H        -2.252015         4.249074         2.277300
 H        -2.703935         1.167089        -0.151950
 H        -1.599503         2.213080        -1.096631
