19
Iteration:  3774charge 0 multiplicity 1
 O        -0.243838         0.377777        -0.220364
 C        -0.712107         1.363077         0.617167
 C         0.145269         2.623818         0.505407
 C        -0.376575         3.546392         1.500703
 C        -0.910111         2.708746         2.737568
 C        -0.538985         1.253422         2.317127
 C        -1.837944         3.432911         1.780128
 O        -2.731780         2.831096         0.897501
 C        -2.126448         1.671400         0.192230
 H         0.705673         0.175959        -0.018274
 H         1.207380         2.450908         0.607603
 H         0.119406         2.901773        -0.568672
 H        -0.063949         4.603319         1.577919
 H        -0.629819         3.042056         3.713135
 H         0.596568         1.042568         2.631632
 H        -1.094297         0.398617         2.705347
 H        -2.388706         4.344377         2.133530
 H        -2.748293         0.671582         0.217988
 H        -2.059334         1.884452        -0.840297
