19
Iteration:  4622charge 0 multiplicity 1
 O        -0.290490         0.240442        -0.140846
 C        -0.705094         1.435245         0.673195
 C         0.323413         2.689620         0.580017
 C        -0.283091         3.661623         1.667102
 C        -0.911691         2.647515         2.725843
 C        -0.895447         1.220712         2.208509
 C        -1.788449         3.425658         1.747701
 O        -2.613097         2.758695         0.825222
 C        -2.097672         1.773679         0.053806
 H         0.599689         0.524412        -0.388887
 H         1.328222         2.226269         0.945927
 H         0.374619         3.147387        -0.448652
 H         0.248740         4.659356         1.821863
 H        -0.878334         2.944727         3.747481
 H        -0.184682         0.496632         2.638660
 H        -1.832859         0.704765         2.228091
 H        -2.383914         4.153133         2.356337
 H        -2.791035         0.848673         0.023601
 H        -1.965745         2.109379        -0.949022
