19
Iteration:   294
 O        -0.230065         0.227178        -0.105114
 C        -0.649411         1.396685         0.637168
 C         0.376576         2.575968         0.768128
 C        -0.300762         3.476483         1.854589
 C        -1.141507         2.489090         2.753654
 C        -1.107995         1.106018         2.076763
 C        -1.765014         3.483909         1.783787
 O        -2.577167         3.003118         0.688433
 C        -1.870185         2.055325        -0.127975
 H         0.608069        -0.114322         0.306848
 H         1.325623         2.317174         1.265752
 H         0.550274         3.086852        -0.186317
 H         0.272300         4.314727         2.111747
 H        -1.455194         2.305930         3.843515
 H        -0.370592         0.464736         2.533926
 H        -2.093741         0.735030         2.169544
 H        -2.402050         4.403444         2.025906
 H        -2.614358         1.308821        -0.493021
 H        -1.640341         2.547243        -1.070147
