19
Iteration:  2307
 O        -0.151689         0.284099        -0.027597
 C        -0.689472         1.395386         0.658625
 C         0.256640         2.636305         0.625856
 C        -0.333401         3.431576         1.858343
 C        -1.122892         2.491974         2.736692
 C        -0.932562         1.104610         2.115510
 C        -1.853092         3.475418         1.819205
 O        -2.413520         3.131873         0.565683
 C        -1.987813         1.879766         0.015877
 H        -0.879464        -0.383924        -0.103731
 H         1.364364         2.445550         0.691442
 H         0.011999         3.221290        -0.262975
 H         0.185534         4.293110         2.170639
 H        -1.080770         2.633173         3.775503
 H        -0.097237         0.463077         2.476446
 H        -1.725715         0.358321         2.210278
 H        -2.441146         4.251108         2.242265
 H        -2.825867         1.162803         0.129129
 H        -1.739032         1.985002        -1.104127
