19
Iteration:  3144
 O        -0.066770         0.387003        -0.105345
 C        -0.730630         1.319110         0.688641
 C         0.133740         2.721810         0.580256
 C        -0.262978         3.520481         1.754311
 C        -1.074104         2.498971         2.667625
 C        -0.786541         1.078181         2.193796
 C        -1.831086         3.507434         1.776585
 O        -2.468206         3.057255         0.603204
 C        -2.140223         1.712619         0.233577
 H        -0.621621        -0.150615        -0.701261
 H         1.272229         2.470935         0.447735
 H        -0.205258         3.242999        -0.316982
 H         0.398442         4.222923         2.179983
 H        -1.138140         2.606847         3.704651
 H         0.183360         0.814605         2.542009
 H        -1.591529         0.341179         2.403299
 H        -2.508149         4.242979         2.214825
 H        -2.947695         0.984525         0.490616
 H        -2.200533         1.876550        -0.872235
