19
Iteration:  3452
 O        -0.170347         0.312087        -0.164602
 C        -0.711959         1.412352         0.678511
 C         0.168167         2.643083         0.525972
 C        -0.365142         3.562243         1.588644
 C        -0.888387         2.646600         2.670918
 C        -0.725949         1.187090         2.212259
 C        -1.833432         3.473227         1.782225
 O        -2.754539         2.828570         0.934927
 C        -2.043812         1.794453         0.088348
 H         0.739503         0.140592         0.138148
 H         1.198241         2.303664         0.779582
 H         0.111500         2.816781        -0.532656
 H         0.071810         4.581891         1.680591
 H        -0.780179         2.874526         3.714129
 H         0.230517         0.517730         2.531871
 H        -1.668923         0.558635         2.588084
 H        -2.194105         4.351567         2.232755
 H        -2.688612         0.894686        -0.246758
 H        -1.660740         2.136963        -0.972272
