19
Iteration:  1804
 O        -0.224580         0.259511        -0.160163
 C        -0.631447         1.374517         0.650185
 C         0.248365         2.633269         0.764873
 C        -0.260422         3.424745         1.964995
 C        -1.207690         2.430344         2.687784
 C        -1.082002         1.073868         2.118027
 C        -1.804875         3.528489         1.768408
 O        -2.372443         3.174739         0.520691
 C        -1.939988         1.890158         0.036415
 H         0.505654        -0.290554         0.226651
 H         1.418543         2.471288         0.845895
 H         0.174136         3.258605        -0.185973
 H         0.093176         4.311739         2.447913
 H        -1.415386         2.613585         3.761385
 H        -0.392059         0.417814         2.710241
 H        -2.039192         0.682935         2.010907
 H        -2.581977         4.300779         2.228301
 H        -2.678859         1.059393         0.094636
 H        -1.622059         2.024532        -1.010110
