19
Iteration:  1739
 O        -0.280712         0.292261        -0.186681
 C        -0.602316         1.414229         0.733524
 C         0.402226         2.563000         0.814120
 C        -0.293085         3.464290         1.866577
 C        -1.211965         2.480931         2.681664
 C        -1.205294         1.084090         2.083248
 C        -1.761388         3.547519         1.731346
 O        -2.524167         3.007952         0.663404
 C        -1.800039         1.943465        -0.050859
 H         0.618748         0.039856         0.072234
 H         1.489412         2.255412         1.184664
 H         0.329348         3.046311        -0.191610
 H         0.261804         4.270325         2.302666
 H        -1.002517         2.669196         3.732367
 H        -0.538737         0.439090         2.788353
 H        -2.186125         0.615394         2.008435
 H        -2.465724         4.334616         2.237115
 H        -2.560437         1.182684        -0.225827
 H        -1.641497         2.431177        -1.061148
