19
Iteration:  3015
 O        -0.135987         0.260266         0.007993
 C        -0.684545         1.466280         0.504293
 C         0.369514         2.627295         0.627082
 C        -0.232353         3.516856         1.614713
 C        -0.969565         2.565120         2.701233
 C        -1.048498         1.239041         2.118203
 C        -1.784364         3.515441         1.860442
 O        -2.718190         2.707022         0.910061
 C        -2.032261         1.931469        -0.008982
 H         0.071751         0.294019        -0.956691
 H         1.282604         2.261530         0.984559
 H         0.565747         3.174471        -0.408694
 H         0.376665         4.425051         1.889771
 H        -0.785297         2.870959         3.721266
 H        -0.406067         0.524386         2.700020
 H        -2.110338         0.788797         2.158070
 H        -2.315645         4.502314         2.255555
 H        -2.635651         0.967213        -0.245674
 H        -2.026896         2.422766        -0.981869
