19
Iteration:  3310
 O        -0.347272         0.219849        -0.132877
 C        -0.636355         1.397514         0.644783
 C         0.270737         2.724665         0.598606
 C        -0.374753         3.536837         1.701052
 C        -0.960722         2.568610         2.726774
 C        -0.668018         1.181471         2.226490
 C        -1.834277         3.468172         1.829611
 O        -2.673490         2.889551         0.706114
 C        -2.039471         1.775541         0.078070
 H         0.248209         0.531231        -0.820591
 H         1.373242         2.440738         0.877330
 H         0.436353         3.241769        -0.391882
 H         0.094171         4.511779         1.973199
 H        -0.918961         2.989331         3.802544
 H         0.344877         1.008828         2.468419
 H        -1.499133         0.513443         2.546759
 H        -2.427881         4.236246         2.384526
 H        -2.696861         0.863721         0.133819
 H        -1.951750         2.125410        -1.012649
