19
Iteration:  3020charge 0 multiplicity 1
 O        -0.129606         0.272218         0.001734
 C        -0.678031         1.486592         0.556501
 C         0.361925         2.552508         0.628261
 C        -0.278720         3.545212         1.611542
 C        -0.962317         2.593920         2.660786
 C        -1.059235         1.222315         2.094704
 C        -1.789764         3.487295         1.813431
 O        -2.735128         2.716604         0.956322
 C        -1.999151         1.963828        -0.011118
 H         0.129612         0.396527        -0.922027
 H         1.335701         2.042517         1.045927
 H         0.705545         3.020604        -0.273473
 H         0.285088         4.437925         1.762898
 H        -0.731113         2.745946         3.723845
 H        -0.257733         0.626914         2.545068
 H        -1.978776         0.738573         2.305277
 H        -2.357472         4.269435         2.143697
 H        -2.686428         1.149619        -0.135194
 H        -1.983276         2.578786        -0.965413
