19
Iteration:  2733charge 0 multiplicity 1
 O        -0.149652         0.272658         0.005661
 C        -0.710387         1.324106         0.704544
 C         0.041011         2.748201         0.545468
 C        -0.278717         3.518222         1.803096
 C        -0.997278         2.550639         2.686237
 C        -0.775868         1.062948         2.176352
 C        -1.830677         3.476875         1.843681
 O        -2.441281         3.137186         0.500485
 C        -2.093865         1.726271         0.137873
 H        -0.635264         0.262387        -0.859095
 H         1.194368         2.475968         0.376762
 H        -0.341556         3.237565        -0.302979
 H         0.244680         4.299103         2.329711
 H        -0.873516         2.700613         3.729261
 H         0.206557         0.635575         2.446723
 H        -1.537563         0.315903         2.421976
 H        -2.459677         4.052851         2.451260
 H        -2.873926         0.954694         0.268483
 H        -1.943413         1.684751        -0.930291
