19
Iteration:   896
 O        -0.172980         0.233511        -0.115933
 C        -0.648418         1.424554         0.651276
 C         0.384268         2.710781         0.787419
 C        -0.282210         3.484630         1.897436
 C        -1.172077         2.492834         2.699547
 C        -1.131247         1.136770         2.015966
 C        -1.787313         3.455751         1.803854
 O        -2.511674         3.059815         0.634087
 C        -1.938610         1.847107        -0.052444
 H         0.692391        -0.000736         0.334224
 H         1.291019         2.171799         1.081970
 H         0.346722         3.178233        -0.240226
 H         0.211890         4.326965         2.477594
 H        -1.408159         2.476824         3.786226
 H        -0.424357         0.443298         2.476086
 H        -2.169341         0.635180         1.812409
 H        -2.296731         4.235469         2.266052
 H        -2.677415         1.061599        -0.084524
 H        -1.933867         2.210515        -1.046192
