19
Iteration:  1253charge 0 multiplicity 1
 O        -0.141150         0.273455        -0.043055
 C        -0.664955         1.415140         0.599267
 C         0.319655         2.610051         0.643755
 C        -0.328430         3.427025         1.750057
 C        -1.152461         2.531660         2.741679
 C        -1.130421         1.006731         2.169790
 C        -1.837406         3.459826         1.832562
 O        -2.560555         3.036730         0.713519
 C        -1.855145         2.014820        -0.125430
 H         0.663369        -0.041019         0.340935
 H         1.375102         2.345969         0.936456
 H         0.443303         3.117659        -0.334719
 H         0.261799         4.354467         2.118441
 H        -1.276787         2.568367         3.832377
 H        -0.392327         0.416558         2.777202
 H        -2.061792         0.542122         2.150670
 H        -2.354560         4.280195         2.379635
 H        -2.518788         1.272957        -0.573889
 H        -1.360004         2.653039        -0.900714
