19
Iteration:  3673
 O        -0.245111         0.347399        -0.218863
 C        -0.624138         1.471066         0.617066
 C         0.276046         2.661096         0.528542
 C        -0.341988         3.572602         1.552576
 C        -0.926117         2.671880         2.658654
 C        -0.696710         1.264328         2.169072
 C        -1.880075         3.411788         1.824407
 O        -2.748232         2.772363         0.922732
 C        -2.047354         1.712318         0.197820
 H        -0.139409        -0.412105         0.358304
 H         1.338729         2.433665         0.828639
 H         0.283802         3.159819        -0.447803
 H         0.107612         4.577889         1.571638
 H        -0.738187         2.909867         3.737061
 H         0.305070         0.901380         2.601010
 H        -1.651629         0.660449         2.265633
 H        -2.384208         4.250132         2.293350
 H        -2.569770         0.755281         0.593385
 H        -2.015039         1.723849        -0.847896
