19
Iteration:  4179
 O        -0.142360         0.260600        -0.090391
 C        -0.699742         1.348611         0.722471
 C         0.027327         2.734527         0.350943
 C        -0.362306         3.618567         1.536747
 C        -0.798752         2.691785         2.678825
 C        -0.757727         1.253951         2.305263
 C        -1.845037         3.364650         1.881815
 O        -2.564254         2.839076         0.821339
 C        -2.078470         1.691169         0.158138
 H        -0.447785         0.491239        -1.002405
 H         1.082270         2.494844         0.286063
 H        -0.335418         3.093387        -0.544366
 H         0.193494         4.497878         1.858555
 H        -0.617544         3.014989         3.704779
 H         0.170884         0.867153         2.699147
 H        -1.576260         0.605584         2.856130
 H        -2.369547         4.157656         2.244631
 H        -2.772172         0.866719         0.311565
 H        -2.072882         1.926249        -0.916160
