19
Iteration:  2304charge 0 multiplicity 1
 O        -0.143991         0.276139        -0.030947
 C        -0.648633         1.407941         0.644866
 C         0.241014         2.639219         0.601644
 C        -0.328336         3.402387         1.861913
 C        -1.124490         2.470868         2.732551
 C        -0.938520         1.139835         2.124532
 C        -1.845497         3.454140         1.812801
 O        -2.415954         3.147245         0.567393
 C        -2.022519         1.888071         0.022126
 H        -0.820129        -0.426629         0.007533
 H         1.327223         2.513761         0.777084
 H         0.130047         3.235256        -0.289834
 H         0.242342         4.349246         2.172100
 H        -1.186680         2.632936         3.838686
 H        -0.206017         0.450063         2.560844
 H        -1.754488         0.346379         2.162958
 H        -2.428808         4.291577         2.249876
 H        -2.759394         1.092272         0.187006
 H        -1.802684         1.976830        -1.061726
