19
Iteration:  2576charge 0 multiplicity 1
 O        -0.144462         0.371092        -0.255064
 C        -0.750289         1.311979         0.698513
 C         0.244016         2.578635         0.729513
 C        -0.285363         3.548251         1.626031
 C        -0.995301         2.682936         2.686981
 C        -0.954935         1.139963         2.374325
 C        -1.753660         3.470312         1.720083
 O        -2.639668         2.833296         0.837450
 C        -1.927968         1.875772        -0.040759
 H        -0.762922        -0.308884        -0.583366
 H         1.297154         2.440283         1.006457
 H         0.405670         2.850008        -0.382673
 H         0.198930         4.439787         1.976954
 H        -1.129914         3.068783         3.704614
 H        -0.023330         0.686687         2.638103
 H        -1.799965         0.481940         2.620220
 H        -2.359138         4.368739         2.165766
 H        -2.746481         1.175469        -0.151940
 H        -1.681354         2.287684        -1.050350
