19
Iteration:  1201
 O        -0.200863         0.369443        -0.197878
 C        -0.685367         1.424738         0.676587
 C         0.411004         2.504212         0.850918
 C        -0.316145         3.498160         1.748926
 C        -1.234525         2.521226         2.753172
 C        -1.017516         1.082942         2.140102
 C        -1.795499         3.457497         1.733797
 O        -2.583748         2.990368         0.679665
 C        -1.916299         1.964431        -0.080608
 H         0.652424         0.043111         0.112331
 H         1.321011         2.113098         1.325502
 H         0.571784         2.916950        -0.172276
 H         0.135217         4.303711         2.269679
 H        -1.271672         2.543685         3.843696
 H        -0.103578         0.745483         2.659752
 H        -1.910562         0.390372         2.319990
 H        -2.212682         4.438988         2.060356
 H        -2.559238         1.095380        -0.149060
 H        -1.657228         2.275348        -1.065468
