19
Iteration:  4844charge 0 multiplicity 1
 O        -0.197096         0.299033        -0.109740
 C        -0.688795         1.403782         0.635198
 C         0.324712         2.605218         0.524099
 C        -0.318298         3.554779         1.528486
 C        -0.898647         2.616274         2.643664
 C        -0.785644         1.205302         2.236124
 C        -1.828604         3.450649         1.826145
 O        -2.775867         2.857549         0.892798
 C        -2.141133         1.812373         0.092487
 H         0.758929         0.458287         0.067530
 H         1.308625         2.285179         1.054585
 H         0.720256         2.837338        -0.525643
 H        -0.070113         4.599031         1.687234
 H        -0.704797         2.884191         3.736443
 H         0.114680         0.549127         2.558938
 H        -1.669651         0.732806         2.568863
 H        -2.263678         4.427649         2.180262
 H        -2.825669         0.862813         0.024232
 H        -2.010300         2.129963        -0.918102
