19
Iteration:  3364
 O         0.000848         0.387119        -0.144576
 C        -0.727734         1.407250         0.689487
 C        -0.004792         2.667641         0.491523
 C        -0.300306         3.429842         1.723687
 C        -0.949899         2.528976         2.771853
 C        -0.721840         1.157641         2.150463
 C        -1.794318         3.515480         1.839451
 O        -2.560615         2.990249         0.641642
 C        -2.181328         1.726795         0.169428
 H        -0.060356        -0.398348         0.405251
 H         1.069775         2.419864         0.456378
 H        -0.472209         3.065851        -0.374095
 H         0.246415         4.431010         1.753779
 H        -1.019557         2.792855         3.898078
 H         0.239388         0.633263         2.487793
 H        -1.484306         0.388742         2.573548
 H        -2.223459         4.509293         2.145784
 H        -3.024276         1.051421         0.406946
 H        -2.375093         1.926821        -0.946400
