19
Iteration:   132charge 0 multiplicity 1
 O        -0.278238         0.361325        -0.139343
 C        -0.659477         1.437292         0.661837
 C         0.441716         2.545655         0.829971
 C        -0.254129         3.372344         1.891405
 C        -1.257285         2.507611         2.695069
 C        -1.002140         1.052199         2.110363
 C        -1.772891         3.553154         1.739938
 O        -2.609687         3.064914         0.582661
 C        -1.941179         1.922438        -0.058899
 H         0.487623        -0.078303         0.178607
 H         1.386472         2.109227         1.381324
 H         0.640378         3.101100        -0.059273
 H         0.199244         4.230764         2.230551
 H        -1.349056         2.507951         3.824093
 H        -0.038457         0.718449         2.637355
 H        -1.719462         0.310034         2.284650
 H        -2.149224         4.595822         1.978550
 H        -2.543509         1.067179        -0.088248
 H        -1.606993         1.994403        -1.110056
