19
Iteration:  4214
 O        -0.064324         0.321795        -0.065576
 C        -0.675236         1.472657         0.603640
 C         0.220498         2.715333         0.440843
 C        -0.331155         3.499911         1.555419
 C        -0.960346         2.608946         2.629373
 C        -0.654795         1.203712         2.171100
 C        -1.811657         3.461687         1.742855
 O        -2.702742         2.878873         0.874754
 C        -2.242617         1.686685         0.302731
 H        -0.748870        -0.312478        -0.388017
 H         1.247272         2.373529         0.643391
 H         0.274728         3.171442        -0.498001
 H         0.139262         4.478633         2.032462
 H        -0.783612         2.921449         3.669512
 H         0.373574         1.005136         2.348536
 H        -1.406649         0.464961         2.599322
 H        -2.321998         4.436867         2.023850
 H        -2.709525         0.908975         0.846277
 H        -2.557366         1.611472        -0.778077
