19
Iteration:   141charge 0 multiplicity 1
 O        -0.267631         0.363760        -0.121516
 C        -0.645893         1.445252         0.681380
 C         0.456629         2.518759         0.816374
 C        -0.245255         3.379625         1.817242
 C        -1.334081         2.446464         2.697633
 C        -0.945486         1.133927         2.104272
 C        -1.821148         3.484709         1.745642
 O        -2.565362         3.122486         0.584707
 C        -1.976985         1.898199        -0.043550
 H         0.476337        -0.090462         0.220719
 H         1.318613         1.879734         1.319406
 H         0.900710         2.926237        -0.026030
 H         0.141053         4.228618         2.308932
 H        -1.349493         2.704992         3.759271
 H         0.049079         0.863401         2.713610
 H        -1.598699         0.306978         2.166800
 H        -2.241893         4.368991         2.234254
 H        -2.785383         1.118583        -0.053084
 H        -1.678864         2.295068        -1.097709
