19
Iteration:   918charge 0 multiplicity 1
 O        -0.135957         0.316003        -0.100185
 C        -0.685768         1.352239         0.617601
 C         0.273283         2.570905         0.730515
 C        -0.356698         3.369467         1.887219
 C        -1.196530         2.473312         2.714424
 C        -0.992426         1.046245         2.180451
 C        -1.833795         3.520897         1.770428
 O        -2.524113         3.102502         0.598920
 C        -1.909666         1.998566        -0.090151
 H         0.563844         0.075716         0.497841
 H         1.243043         2.163791         1.108946
 H         0.332661         3.223362        -0.196298
 H         0.408899         4.108391         2.223352
 H        -1.205205         2.778185         3.790211
 H        -0.007414         0.700862         2.513925
 H        -1.834637         0.252525         2.357228
 H        -2.351947         4.367877         2.164491
 H        -2.710163         1.290147        -0.308268
 H        -1.695825         2.422305        -1.068112
