19
Iteration:  1202
 O        -0.204388         0.365741        -0.194550
 C        -0.695650         1.429059         0.680153
 C         0.419806         2.508157         0.847273
 C        -0.309463         3.514633         1.757093
 C        -1.241045         2.519727         2.756108
 C        -1.024047         1.078818         2.129751
 C        -1.789209         3.456935         1.737356
 O        -2.578146         2.979016         0.682190
 C        -1.920987         1.970009        -0.088510
 H         0.671415         0.034440         0.109286
 H         1.325182         2.135967         1.311376
 H         0.608453         2.937401        -0.161464
 H         0.135002         4.291867         2.229898
 H        -1.264588         2.562222         3.821488
 H        -0.127556         0.761369         2.647299
 H        -1.917043         0.366064         2.335209
 H        -2.216861         4.406696         2.077662
 H        -2.552213         1.068799        -0.115442
 H        -1.654830         2.252718        -1.099999
