19
Iteration:  4991
 O        -0.127056         0.238876        -0.096788
 C        -0.685068         1.372969         0.686290
 C         0.060447         2.658472         0.505564
 C        -0.350027         3.540137         1.645927
 C        -0.889901         2.646750         2.723819
 C        -0.771529         1.131569         2.123627
 C        -1.811754         3.445661         1.839522
 O        -2.598392         3.056192         0.676169
 C        -2.154303         1.682528         0.237962
 H         0.817637         0.459152        -0.085891
 H         1.140306         2.442751         0.648393
 H        -0.062006         3.128139        -0.508297
 H         0.235631         4.448934         1.785858
 H        -0.880770         2.977506         3.816745
 H         0.142611         0.642394         2.426259
 H        -1.591862         0.483268         2.278679
 H        -2.246541         4.359698         2.375463
 H        -2.840586         0.882228         0.499396
 H        -2.118637         1.773252        -0.864110
