19
Iteration:  4316charge 0 multiplicity 1
 O        -0.033270         0.273416        -0.048668
 C        -0.637064         1.423927         0.597075
 C         0.253476         2.657092         0.453809
 C        -0.303099         3.600218         1.526904
 C        -0.972066         2.605433         2.645163
 C        -0.772270         1.221285         2.129968
 C        -1.782414         3.508934         1.777015
 O        -2.780975         2.867887         0.940100
 C        -2.152130         1.728502         0.253266
 H        -0.699673        -0.034351        -0.689648
 H         1.215776         2.234404         0.701411
 H         0.268514         3.112367        -0.570667
 H         0.213132         4.440022         1.836332
 H        -0.991893         2.799253         3.709159
 H         0.115442         0.781130         2.642462
 H        -1.553293         0.560073         2.316826
 H        -2.297327         4.300130         2.265575
 H        -2.528996         0.814423         0.555575
 H        -2.555339         1.845435        -0.825564
