19
Iteration:  1559charge 0 multiplicity 1
 O        -0.322001         0.362788        -0.146928
 C        -0.639063         1.427786         0.659504
 C         0.210286         2.664349         0.780238
 C        -0.338388         3.378017         1.924010
 C        -1.141102         2.457064         2.805427
 C        -0.962925         1.115638         2.186382
 C        -1.866665         3.448857         1.794294
 O        -2.366897         3.110203         0.445052
 C        -1.898522         1.826582        -0.097766
 H         0.383428        -0.151158         0.277091
 H         1.291415         2.284140         0.925831
 H         0.485617         3.269965        -0.098348
 H         0.196407         4.194151         2.347600
 H        -1.414107         2.664559         3.930061
 H        -0.057161         0.515631         2.657046
 H        -1.794124         0.349668         2.163376
 H        -2.260697         4.479562         2.249635
 H        -2.623130         0.974802         0.045908
 H        -1.783965         2.095917        -1.109464
