19
Iteration:  2707charge 0 multiplicity 1
 O        -0.062565         0.326678        -0.107574
 C        -0.684329         1.373058         0.584340
 C         0.300571         2.631338         0.580934
 C        -0.330043         3.437345         1.695892
 C        -1.189035         2.579348         2.743486
 C        -0.735664         1.100970         2.179317
 C        -1.814310         3.474729         1.780851
 O        -2.491335         3.119036         0.582767
 C        -2.227428         1.775218         0.293555
 H        -0.669731        -0.100759        -0.754811
 H         1.167140         2.140134         0.927671
 H         0.328183         3.278674        -0.367599
 H         0.124504         4.306355         2.199860
 H        -1.324086         2.730390         3.862276
 H         0.252258         0.768926         2.461466
 H        -1.481183         0.308592         2.356641
 H        -2.267535         4.422204         2.223174
 H        -2.788541         1.026442         0.786162
 H        -2.537564         1.589189        -0.808466
