19
Iteration:  3479charge 0 multiplicity 1
 O        -0.110163         0.274112        -0.057306
 C        -0.653434         1.481974         0.501107
 C         0.259236         2.772453         0.422009
 C        -0.348024         3.588594         1.618297
 C        -0.866014         2.633795         2.652312
 C        -0.912565         1.243848         2.127523
 C        -1.852540         3.454585         1.793100
 O        -2.638691         2.715234         1.035457
 C        -2.101536         1.761818         0.102267
 H        -0.206522        -0.405276         0.611880
 H         1.303786         2.405305         0.624465
 H         0.055876         3.086650        -0.645811
 H         0.198056         4.470034         1.948645
 H        -0.593040         2.789652         3.749488
 H        -0.285479         0.525683         2.534421
 H        -1.840049         0.824624         2.274592
 H        -2.475239         4.203469         2.400577
 H        -2.708625         0.929634        -0.027575
 H        -1.997857         2.151142        -0.920689
