19
Iteration:  3293
 O        -0.253757         0.237929        -0.077150
 C        -0.708856         1.416340         0.682505
 C         0.259853         2.590797         0.618734
 C        -0.282059         3.612259         1.676781
 C        -0.985063         2.638687         2.669140
 C        -0.640768         1.194503         2.197916
 C        -1.917434         3.359201         1.775004
 O        -2.721478         2.869413         0.828278
 C        -1.983744         1.892155         0.003249
 H        -0.322099         0.437647        -1.018138
 H         1.257796         2.249913         0.724755
 H         0.055816         2.985817        -0.385677
 H         0.294182         4.473974         2.094008
 H        -1.083133         2.683866         3.705077
 H         0.416326         0.845761         2.534251
 H        -1.281559         0.431679         2.628763
 H        -2.407611         4.237552         2.152491
 H        -2.860836         1.261792        -0.209133
 H        -1.608017         2.277876        -0.919235
