19
Iteration:  3870
 O        -0.045213         0.422024        -0.155201
 C        -0.686416         1.360616         0.706786
 C         0.091077         2.634877         0.372726
 C        -0.339667         3.485759         1.546857
 C        -0.913259         2.676346         2.677456
 C        -0.528301         1.212105         2.282112
 C        -1.847117         3.503278         1.758738
 O        -2.753990         2.830129         0.883368
 C        -2.242616         1.699856         0.262317
 H        -0.592335        -0.341437        -0.425374
 H         1.236175         2.288177         0.537649
 H        -0.045825         3.092297        -0.623667
 H         0.145124         4.464797         1.818867
 H        -0.726884         3.081284         3.668135
 H         0.461851         0.961319         2.516949
 H        -1.066409         0.357251         2.804264
 H        -2.318680         4.345383         2.185179
 H        -2.943271         0.913204         0.225831
 H        -2.001855         1.987216        -0.841494
