19
Iteration:  3843charge 0 multiplicity 1
 O        -0.088674         0.291210        -0.031456
 C        -0.651313         1.436470         0.644054
 C         0.056469         2.752805         0.342718
 C        -0.373008         3.639833         1.603737
 C        -0.825128         2.653893         2.628857
 C        -0.670627         1.238487         2.109857
 C        -1.854316         3.394448         1.912698
 O        -2.610340         2.839937         0.860664
 C        -2.169132         1.621027         0.202904
 H        -0.721166        -0.421741         0.181697
 H         1.111989         2.591858         0.187022
 H        -0.280711         3.249335        -0.636312
 H         0.020772         4.625536         1.826131
 H        -0.731003         2.934493         3.710907
 H         0.361385         0.777682         2.430347
 H        -1.426072         0.516063         2.472122
 H        -2.398803         4.243854         2.509647
 H        -2.930747         0.751086         0.388679
 H        -2.200743         1.846357        -0.875382
