19
Iteration:  4723
 O        -0.261704         0.249260        -0.165164
 C        -0.622556         1.401765         0.679305
 C         0.243525         2.704763         0.577540
 C        -0.324000         3.536956         1.678800
 C        -1.015620         2.619617         2.676421
 C        -0.700967         1.076971         2.139518
 C        -1.843815         3.535282         1.769153
 O        -2.660857         2.974980         0.709447
 C        -2.101095         1.762242         0.211432
 H         0.414126        -0.215608         0.368351
 H         1.373656         2.538515         0.697823
 H         0.108223         3.146223        -0.468619
 H         0.180693         4.434585         2.000474
 H        -0.851794         2.822820         3.757745
 H         0.293755         0.689258         2.544546
 H        -1.405945         0.378123         2.386873
 H        -2.391820         4.323331         2.291315
 H        -2.737624         0.882087         0.562456
 H        -2.089958         1.821535        -0.847409
