19
Iteration:  1757charge 0 multiplicity 1
 O        -0.320389         0.261922        -0.129022
 C        -0.668071         1.416715         0.638495
 C         0.411400         2.516103         0.835396
 C        -0.295458         3.393270         1.903020
 C        -1.215804         2.487171         2.709713
 C        -0.932723         1.097918         2.138731
 C        -1.858040         3.489820         1.770945
 O        -2.551151         3.098803         0.574125
 C        -1.892807         2.010919        -0.119265
 H         0.609313         0.022870         0.054421
 H         1.237259         2.096743         1.382265
 H         0.870053         3.186993         0.088725
 H         0.264859         4.237119         2.382871
 H        -1.564427         2.639441         3.710959
 H        -0.047190         0.703523         2.565912
 H        -1.797335         0.471904         2.292858
 H        -2.223007         4.420212         1.979556
 H        -2.760780         1.307893        -0.252454
 H        -1.468929         2.256931        -1.063465
