19
Iteration:  4866
 O        -0.252000         0.326193        -0.200943
 C        -0.599565         1.393827         0.698583
 C         0.197005         2.636622         0.529464
 C        -0.299155         3.585082         1.587965
 C        -0.880185         2.707405         2.660904
 C        -0.963954         1.246928         2.158565
 C        -1.834878         3.501672         1.785294
 O        -2.615802         2.710019         0.973885
 C        -1.998108         1.773030         0.112526
 H         0.467349        -0.170601         0.216093
 H         1.321255         2.416221         0.523232
 H         0.064698         2.959093        -0.559407
 H         0.293097         4.435058         1.936329
 H        -0.944146         3.042138         3.720189
 H        -0.183783         0.509927         2.627694
 H        -1.911268         0.803354         2.317682
 H        -2.307602         4.469571         2.007779
 H        -2.619024         0.779298         0.156570
 H        -1.985925         2.095182        -0.912479
