19
Iteration:   977
 O        -0.218004         0.268995        -0.168489
 C        -0.606653         1.394124         0.571704
 C         0.423639         2.666941         0.841558
 C        -0.285935         3.478331         1.882656
 C        -1.287899         2.485049         2.762136
 C        -1.050312         1.149700         2.052603
 C        -1.802337         3.511832         1.777282
 O        -2.520273         3.030040         0.621859
 C        -1.958769         1.848837        -0.027371
 H         0.630500        -0.088620         0.144383
 H         1.444644         2.340239         1.077894
 H         0.565964         3.148343        -0.114626
 H         0.164259         4.337909         2.313324
 H        -1.254600         2.336387         3.821793
 H        -0.393998         0.536677         2.710534
 H        -1.935255         0.546750         2.023257
 H        -2.287393         4.514634         2.149813
 H        -2.600409         0.999769         0.090421
 H        -1.937867         2.186298        -1.010162
