19
Iteration:  3196charge 0 multiplicity 1
 O        -0.275998         0.237933        -0.116386
 C        -0.660790         1.407201         0.615299
 C         0.252173         2.639486         0.605129
 C        -0.366083         3.608678         1.686902
 C        -1.046428         2.524123         2.646586
 C        -0.665015         1.145069         2.169364
 C        -1.839844         3.440857         1.805461
 O        -2.687167         3.036489         0.737092
 C        -2.011186         1.799214         0.115496
 H         0.650833        -0.006764        -0.094736
 H         1.250127         2.255988         0.998586
 H         0.315283         3.113347        -0.354268
 H         0.191015         4.308897         2.378377
 H        -1.213497         2.702047         3.684640
 H         0.360854         0.793170         2.505916
 H        -1.444209         0.443105         2.454571
 H        -2.319348         4.252936         2.386854
 H        -2.633466         0.925855         0.134812
 H        -1.945715         2.105258        -0.966491
