19
Iteration:  2880
 O        -0.082697         0.259863         0.045246
 C        -0.766465         1.329155         0.636375
 C         0.165947         2.676256         0.580507
 C        -0.302587         3.484709         1.727043
 C        -0.982123         2.532706         2.654511
 C        -0.816527         1.113169         2.129553
 C        -1.853195         3.447574         1.867174
 O        -2.552751         3.056055         0.694880
 C        -2.136373         1.881622         0.042998
 H        -0.160809         0.375999        -0.926684
 H         1.222009         2.373885         0.803654
 H         0.251697         3.069797        -0.435338
 H         0.320879         4.274049         2.057342
 H        -0.943774         2.739367         3.713993
 H         0.224572         0.768487         2.358138
 H        -1.471239         0.292541         2.505404
 H        -2.282640         4.334140         2.150839
 H        -3.012499         1.156759         0.109678
 H        -1.918247         2.035021        -1.031946
