19
Iteration:  4787
 O        -0.230162         0.226572        -0.020743
 C        -0.603572         1.412943         0.667240
 C         0.140464         2.779082         0.476547
 C        -0.299811         3.586175         1.701593
 C        -0.928973         2.559752         2.674897
 C        -0.796952         1.213195         2.162787
 C        -1.838073         3.446584         1.860629
 O        -2.551310         2.905627         0.662752
 C        -2.040155         1.712236         0.174128
 H        -0.826091         0.109883        -0.768691
 H         1.287554         2.765635         0.428245
 H        -0.285293         3.281886        -0.423792
 H         0.223664         4.513856         1.820281
 H        -0.776041         2.968508         3.664785
 H         0.021503         0.577206         2.608059
 H        -1.770258         0.658889         2.386442
 H        -2.501801         3.953690         2.555393
 H        -2.601752         0.775266         0.550631
 H        -2.087401         1.814675        -0.908047
