19
Iteration:  1314
 O        -0.326846         0.333350        -0.211835
 C        -0.574917         1.413475         0.719962
 C         0.391707         2.605057         0.850270
 C        -0.315510         3.507178         1.875309
 C        -1.209017         2.480356         2.642967
 C        -1.045482         1.062952         2.076075
 C        -1.809910         3.492433         1.715501
 O        -2.468915         3.037808         0.604574
 C        -1.909736         1.851992         0.036332
 H         0.533904         0.052627         0.063333
 H         1.401044         2.337918         1.175844
 H         0.409962         3.225640        -0.063354
 H         0.280798         4.437287         2.249700
 H        -1.402511         2.679229         3.764501
 H        -0.224647         0.701417         2.723588
 H        -1.994574         0.392225         2.251808
 H        -2.497549         4.224436         2.185869
 H        -2.557403         0.945452         0.118964
 H        -1.777512         2.163602        -0.966696
