19
Iteration:  3827charge 0 multiplicity 1
 O        -0.158028         0.233476        -0.035050
 C        -0.690277         1.429036         0.509671
 C         0.124309         2.909063         0.308065
 C        -0.413143         3.639301         1.527643
 C        -0.813385         2.627285         2.704777
 C        -0.681155         1.260764         2.138910
 C        -1.882412         3.397359         1.908026
 O        -2.587687         2.831714         0.857321
 C        -2.107712         1.650965         0.258571
 H        -0.399240        -0.590398         0.451731
 H         1.192317         2.713097         0.596185
 H        -0.086683         3.278401        -0.644238
 H         0.195308         4.450121         1.953413
 H        -0.584156         2.619409         3.754365
 H         0.099264         0.662678         2.529066
 H        -1.566568         0.651314         2.402303
 H        -2.631353         3.983154         2.330491
 H        -2.542973         0.727751         0.784884
 H        -2.407117         1.559065        -0.790772
