19
Iteration:   431charge 0 multiplicity 1
 O        -0.171452         0.337877        -0.104739
 C        -0.677581         1.393899         0.685504
 C         0.248860         2.688136         0.675808
 C        -0.295313         3.375256         1.937683
 C        -1.240751         2.453958         2.686423
 C        -1.148051         1.039849         2.075812
 C        -1.736979         3.501408         1.762157
 O        -2.329462         3.122929         0.591924
 C        -1.975765         1.859469        -0.002021
 H         0.591558        -0.042080         0.321605
 H         1.297983         2.466822         0.796185
 H         0.179930         3.364328        -0.184191
 H         0.166052         4.202957         2.428254
 H        -1.313216         2.487674         3.804239
 H        -0.368066         0.560292         2.693911
 H        -2.146121         0.544051         2.088502
 H        -2.209501         4.394847         2.297995
 H        -2.736159         1.054538         0.025198
 H        -1.768174         1.912502        -1.134672
