19
Iteration:  4352
 O        -0.312350         0.314677        -0.155391
 C        -0.698423         1.436520         0.671840
 C         0.096417         2.650977         0.474345
 C        -0.348575         3.670818         1.559963
 C        -0.879756         2.635149         2.768351
 C        -0.648893         1.201402         2.346335
 C        -1.781601         3.421717         1.800281
 O        -2.664305         2.789233         0.807157
 C        -2.023720         1.764850         0.023120
 H        -0.014898        -0.462366         0.340176
 H         1.215202         2.460115         0.602151
 H         0.049998         3.042360        -0.624035
 H         0.201858         4.648679         1.757391
 H        -0.772920         2.829949         3.867971
 H         0.379726         0.889768         2.595414
 H        -1.408633         0.483062         2.660863
 H        -2.378859         4.144400         2.386092
 H        -2.710941         0.924336         0.075607
 H        -1.761596         2.056667        -1.026352
