19
Iteration:  1858charge 0 multiplicity 1
 O        -0.177978         0.280225        -0.107427
 C        -0.695657         1.411194         0.664391
 C         0.349668         2.567357         0.812223
 C        -0.278931         3.445174         1.826474
 C        -1.179910         2.395475         2.707640
 C        -1.025107         0.983394         2.168588
 C        -1.844803         3.502510         1.732980
 O        -2.503113         3.270440         0.568074
 C        -1.962896         1.931429        -0.079405
 H         0.536778        -0.107196         0.436315
 H         1.272616         2.155157         1.318665
 H         0.566057         3.022013        -0.196055
 H         0.171409         4.350129         2.217420
 H        -1.325085         2.492456         3.807534
 H        -0.157280         0.506984         2.678024
 H        -1.802866         0.263131         2.224444
 H        -2.530307         4.398645         2.178664
 H        -2.727339         1.072590        -0.167059
 H        -1.689248         2.264604        -1.077022
