19
Iteration:  2554
 O        -0.176323         0.361374        -0.148208
 C        -0.669299         1.368107         0.673983
 C         0.280120         2.517125         0.647273
 C        -0.324639         3.465490         1.699494
 C        -1.101976         2.585445         2.739283
 C        -0.763750         1.205778         2.217886
 C        -1.851772         3.505764         1.822469
 O        -2.634344         2.982255         0.648978
 C        -1.989155         1.838129         0.094280
 H        -0.846418        -0.260518        -0.489406
 H         1.290865         2.238179         0.916553
 H         0.443566         2.818655        -0.428434
 H         0.163810         4.369882         1.968203
 H        -0.997871         2.662650         3.796551
 H         0.114236         0.870104         2.727394
 H        -1.582747         0.488627         2.369546
 H        -2.315072         4.507314         2.009665
 H        -2.741390         1.040648         0.134129
 H        -1.745203         1.998605        -0.956299
