19
Iteration:  3129charge 0 multiplicity 1
 O         0.057279         0.412521        -0.169927
 C        -0.719330         1.371029         0.658768
 C         0.067799         2.611121         0.516146
 C        -0.366102         3.437014         1.744010
 C        -1.060758         2.524489         2.700004
 C        -0.860638         1.061027         2.194414
 C        -1.774038         3.509914         1.812946
 O        -2.508662         3.106124         0.664991
 C        -2.147513         1.763645         0.168141
 H        -0.303513        -0.453396         0.158426
 H         1.184533         2.404778         0.585791
 H        -0.158286         3.082271        -0.456617
 H         0.263200         4.346646         2.135028
 H        -1.070749         2.865314         3.792733
 H         0.145377         0.635441         2.528658
 H        -1.616090         0.395152         2.597855
 H        -2.099740         4.467530         2.285576
 H        -2.851729         1.098098         0.643556
 H        -2.167915         1.588002        -0.938064
