19
Iteration:   967charge 0 multiplicity 1
 O        -0.276887         0.234352        -0.206884
 C        -0.596469         1.433736         0.681710
 C         0.427087         2.667910         0.841339
 C        -0.384203         3.476141         1.917383
 C        -1.207779         2.431767         2.669383
 C        -1.013917         1.145617         2.057432
 C        -1.810859         3.520353         1.762955
 O        -2.523011         3.017012         0.611322
 C        -1.928481         1.885551        -0.013614
 H         0.598735        -0.075905         0.175784
 H         1.315592         2.336628         1.373092
 H         0.552472         3.260334        -0.019917
 H         0.085041         4.216830         2.585276
 H        -1.015054         2.613489         3.665412
 H        -0.190289         0.579605         2.564360
 H        -1.911583         0.673494         2.073942
 H        -2.227837         4.583818         1.897202
 H        -2.749609         1.169189         0.080478
 H        -1.722732         1.944707        -1.079819
