19
Iteration:  4919
 O        -0.197810         0.281216        -0.024879
 C        -0.643766         1.411745         0.660710
 C         0.263203         2.625546         0.506682
 C        -0.416348         3.614131         1.493298
 C        -0.903790         2.562150         2.626979
 C        -0.698606         1.189057         2.161513
 C        -1.856520         3.429241         1.885409
 O        -2.744778         2.964489         0.811233
 C        -2.101137         1.816258         0.115621
 H         0.264364        -0.297600         0.588833
 H         1.139029         2.030337         0.880460
 H         0.545080         3.011951        -0.443563
 H         0.255258         4.431210         1.760904
 H        -0.659926         2.689151         3.740789
 H         0.461255         0.956439         2.300922
 H        -1.501586         0.316497         2.362312
 H        -2.564094         3.979699         2.501544
 H        -2.963135         1.015993         0.031603
 H        -1.855197         2.220984        -0.912887
