19
Iteration:  4627
 O        -0.226456         0.234438        -0.147587
 C        -0.709826         1.430402         0.659142
 C         0.322105         2.684047         0.622908
 C        -0.289577         3.601826         1.632053
 C        -0.895028         2.641945         2.677585
 C        -0.907180         1.234750         2.183969
 C        -1.800099         3.421994         1.766986
 O        -2.655848         2.804150         0.855963
 C        -2.118267         1.753380         0.076145
 H         0.673496         0.532711        -0.379309
 H         1.228235         2.353778         1.027682
 H         0.532023         3.121226        -0.357279
 H         0.255054         4.473680         1.871578
 H        -0.805902         3.147973         3.679756
 H        -0.174015         0.491285         2.601691
 H        -1.901771         0.678838         2.218016
 H        -2.311549         4.262330         2.180545
 H        -2.838017         0.982964         0.182417
 H        -2.005957         2.165030        -0.985177
