19
Iteration:   887charge 0 multiplicity 1
 O        -0.210052         0.284252        -0.105166
 C        -0.619969         1.446669         0.551943
 C         0.415170         2.722617         0.749695
 C        -0.324507         3.459421         1.876644
 C        -1.189844         2.442104         2.762418
 C        -1.207764         1.119943         2.072531
 C        -1.785008         3.399255         1.758004
 O        -2.443768         3.015019         0.652932
 C        -1.953559         1.876913        -0.031785
 H         0.669772         0.037762         0.315150
 H         1.440264         2.459596         1.102717
 H         0.738201         3.401266        -0.088217
 H         0.158458         4.374550         2.202344
 H        -1.285366         2.822814         3.829237
 H        -0.537710         0.369284         2.517418
 H        -2.222791         0.605530         2.114069
 H        -2.289091         4.360031         2.139195
 H        -2.623051         1.051208         0.072684
 H        -1.835034         2.181632        -1.053081
