19
Iteration:  3998charge 0 multiplicity 1
 O        -0.253630         0.336512        -0.187828
 C        -0.640681         1.509566         0.636845
 C         0.242109         2.761752         0.448556
 C        -0.329787         3.570717         1.581229
 C        -0.876989         2.706056         2.693572
 C        -0.792645         1.253695         2.236105
 C        -1.798553         3.505976         1.744936
 O        -2.659228         2.683978         0.939937
 C        -2.105489         1.608073         0.206749
 H        -0.636230        -0.517884         0.026131
 H         1.283052         2.639019         0.590285
 H         0.096800         3.189150        -0.581473
 H         0.241447         4.526859         1.673963
 H        -0.684911         2.915754         3.733075
 H         0.355504         1.018657         2.470572
 H        -1.530105         0.507307         2.452889
 H        -2.417372         4.163113         2.174780
 H        -2.651577         0.614324         0.497073
 H        -2.062001         1.683247        -0.847985
