19
Iteration:  4719
 O        -0.305294         0.241074        -0.155290
 C        -0.615057         1.413504         0.664333
 C         0.253095         2.731815         0.562047
 C        -0.333480         3.542681         1.680052
 C        -0.991872         2.604959         2.674675
 C        -0.706236         1.110719         2.155958
 C        -1.850445         3.520706         1.775639
 O        -2.602998         2.950472         0.728435
 C        -2.104295         1.760673         0.170382
 H         0.424078        -0.190680         0.328717
 H         1.334703         2.616607         0.781341
 H         0.133145         3.118393        -0.427425
 H         0.015042         4.555663         1.974865
 H        -0.879115         2.754108         3.701619
 H         0.180590         0.706470         2.607652
 H        -1.538024         0.333734         2.457506
 H        -2.428765         4.207376         2.351750
 H        -2.701337         0.915494         0.613718
 H        -2.066990         1.757144        -0.969443
