19
Iteration:  4951
 O        -0.284319         0.315266        -0.176557
 C        -0.639271         1.431608         0.661615
 C         0.184730         2.678579         0.515846
 C        -0.258657         3.526483         1.712979
 C        -0.959960         2.638593         2.704305
 C        -0.761978         1.247113         2.179984
 C        -1.829653         3.522754         1.728553
 O        -2.635243         2.867972         0.763493
 C        -2.058713         1.653210         0.234489
 H         0.473743        -0.267367         0.047730
 H         1.228010         2.318552         0.540845
 H        -0.033135         3.260071        -0.344275
 H         0.222991         4.490549         1.902304
 H        -1.009938         2.760755         3.836769
 H         0.186495         0.863506         2.569730
 H        -1.507898         0.351630         2.430301
 H        -2.469052         4.331449         2.096957
 H        -2.790699         0.838362         0.346674
 H        -1.943719         1.800372        -0.877278
