19
Iteration:   673
 O        -0.117759         0.317498        -0.069857
 C        -0.730988         1.429200         0.602207
 C         0.288158         2.588669         0.718352
 C        -0.285305         3.425699         1.912918
 C        -1.202397         2.416811         2.722277
 C        -1.032405         1.084183         2.076956
 C        -1.790143         3.427252         1.822115
 O        -2.410907         3.226868         0.519196
 C        -2.055214         1.872721        -0.025786
 H         0.589120        -0.052543         0.513079
 H         1.238838         2.054545         1.120090
 H         0.547429         3.193664        -0.152578
 H         0.130807         4.308431         2.272302
 H        -1.443215         2.524713         3.786300
 H        -0.103478         0.586629         2.534571
 H        -1.926096         0.458686         2.119690
 H        -2.367748         4.293158         2.201946
 H        -2.740724         1.059969         0.322807
 H        -1.996106         1.995903        -1.071874
