19
Iteration:  4325
 O        -0.081426         0.314091        -0.092570
 C        -0.647592         1.444188         0.599063
 C         0.213146         2.625811         0.503931
 C        -0.309952         3.552593         1.548816
 C        -0.904611         2.668314         2.632823
 C        -0.761446         1.232792         2.167401
 C        -1.841192         3.453426         1.773892
 O        -2.731037         2.836860         0.896017
 C        -2.144618         1.753852         0.242416
 H        -0.713808        -0.336476        -0.437271
 H         1.216578         2.383624         0.817198
 H         0.268855         3.103231        -0.430357
 H         0.213146         4.522434         1.657090
 H        -0.752840         2.849630         3.675477
 H         0.177074         0.766698         2.502979
 H        -1.614882         0.576526         2.454392
 H        -2.408685         4.208175         2.383640
 H        -2.763830         0.904699         0.599791
 H        -2.097764         1.892968        -0.899391
