19
Iteration:  4250
 O        -0.268354         0.247578        -0.156972
 C        -0.696314         1.405386         0.660824
 C         0.121608         2.769275         0.475184
 C        -0.413007         3.597428         1.599533
 C        -0.866236         2.614727         2.649547
 C        -0.584349         1.192965         2.245441
 C        -1.852692         3.447770         1.787967
 O        -2.624426         2.863965         0.782162
 C        -2.085084         1.729282         0.209833
 H         0.004817        -0.431454         0.507200
 H         1.193275         2.613060         0.679713
 H        -0.093541         3.165373        -0.585883
 H         0.089308         4.510635         1.932211
 H        -0.665809         2.945816         3.665660
 H         0.447362         0.867413         2.566700
 H        -1.261824         0.489772         2.633518
 H        -2.357559         4.326273         2.286388
 H        -2.669043         0.887198         0.502034
 H        -2.128830         1.814849        -0.940886
