19
Iteration:   930charge 0 multiplicity 1
 O        -0.153986         0.317023        -0.135659
 C        -0.762498         1.453098         0.714814
 C         0.294556         2.564107         0.751227
 C        -0.339319         3.398059         1.761387
 C        -1.258367         2.458561         2.793283
 C        -0.948711         1.093947         2.200598
 C        -1.806227         3.388017         1.754916
 O        -2.483524         3.123239         0.609974
 C        -1.935197         2.005029        -0.136279
 H         0.641703        -0.137235         0.281047
 H         1.322266         2.193706         0.973696
 H         0.481850         2.940597        -0.305167
 H        -0.084322         4.275003         2.299138
 H        -1.401173         2.556602         3.936561
 H        -0.023100         0.701348         2.645954
 H        -1.679741         0.192117         2.380415
 H        -2.174624         4.378500         2.226828
 H        -2.673690         1.274749        -0.323108
 H        -1.378580         2.314614        -0.995461
