19
Iteration:  2385charge 0 multiplicity 1
 O        -0.164534         0.253828        -0.122454
 C        -0.702085         1.407161         0.578539
 C         0.316680         2.562507         0.715315
 C        -0.263601         3.537086         1.793337
 C        -1.009879         2.591081         2.720445
 C        -1.089823         1.159052         2.133913
 C        -1.756290         3.455683         1.772299
 O        -2.595797         2.905601         0.783838
 C        -1.990334         1.937517        -0.078446
 H         0.436305        -0.113856         0.559087
 H         1.313338         2.208229         1.011926
 H         0.353132         3.040371        -0.268474
 H         0.217585         4.448068         2.096001
 H        -1.226217         2.720515         3.806614
 H        -0.354319         0.490938         2.585072
 H        -2.081901         0.804242         2.132881
 H        -2.221715         4.427701         2.042421
 H        -2.714253         1.189292        -0.318725
 H        -1.845125         2.485345        -1.058947
