19
Iteration:  2869
 O        -0.153947         0.203680         0.146872
 C        -0.707177         1.449237         0.592592
 C         0.255873         2.658842         0.560746
 C        -0.307569         3.490444         1.682989
 C        -0.985528         2.518563         2.642612
 C        -0.806430         1.164817         2.055366
 C        -1.879610         3.448892         1.853197
 O        -2.625106         3.006357         0.786786
 C        -2.059906         1.893817        -0.030688
 H        -0.140678         0.078989        -0.802296
 H         1.288509         2.330296         0.826326
 H         0.131845         3.225543        -0.363688
 H         0.300260         4.190343         2.185427
 H        -0.831755         2.562663         3.712171
 H         0.184004         0.765886         2.384609
 H        -1.614028         0.404153         2.234040
 H        -2.325590         4.216488         2.415949
 H        -2.759281         1.000941        -0.043681
 H        -2.118663         2.425753        -0.963233
