19
Iteration:  1557charge 0 multiplicity 1
 O        -0.335321         0.360150        -0.158738
 C        -0.644047         1.417369         0.674615
 C         0.252561         2.671708         0.792216
 C        -0.349761         3.385950         1.912829
 C        -1.147802         2.459446         2.818166
 C        -0.943196         1.114066         2.181512
 C        -1.869299         3.445887         1.784431
 O        -2.377772         3.118859         0.461189
 C        -1.909406         1.819363        -0.103151
 H         0.388923        -0.211619         0.233741
 H         1.321740         2.267712         0.968702
 H         0.493977         3.318418        -0.068381
 H         0.199381         4.180489         2.313149
 H        -1.442506         2.683259         3.844728
 H        -0.111179         0.600883         2.634301
 H        -1.810595         0.346524         2.172028
 H        -2.258355         4.476211         2.265418
 H        -2.575662         0.931898        -0.017510
 H        -1.701022         2.041575        -1.127755
