19
Iteration:  2993
 O        -0.166669         0.200316         0.009260
 C        -0.659338         1.433161         0.641121
 C         0.228086         2.721763         0.528300
 C        -0.254379         3.526559         1.793938
 C        -0.958708         2.528049         2.739541
 C        -1.010177         1.208095         2.066160
 C        -1.788427         3.452911         1.758329
 O        -2.594087         2.898782         0.845933
 C        -1.955172         1.817686        -0.004234
 H        -0.277178         0.373159        -0.931675
 H         1.244536         2.475019         0.425185
 H        -0.081371         3.365938        -0.425620
 H         0.191646         4.544636         2.051245
 H        -0.949297         2.686240         3.835037
 H        -0.231590         0.514770         2.482239
 H        -2.008072         0.677523         2.257870
 H        -2.414047         4.369595         2.180103
 H        -2.803929         1.035634         0.012785
 H        -1.945561         2.161504        -1.038180
