19
Iteration:  4300
 O        -0.088873         0.251805         0.006989
 C        -0.659678         1.404016         0.615570
 C         0.269627         2.730809         0.406363
 C        -0.294751         3.533884         1.562571
 C        -1.001232         2.644841         2.648668
 C        -0.754481         1.184025         2.098445
 C        -1.817280         3.536171         1.795563
 O        -2.707669         2.887683         0.951894
 C        -2.213935         1.624151         0.212807
 H         0.081665         0.385757        -0.935632
 H         1.371193         2.628348         0.544648
 H         0.020970         3.164455        -0.539289
 H         0.228035         4.527543         1.946266
 H        -0.790248         2.765678         3.723861
 H         0.211903         0.780827         2.383835
 H        -1.574317         0.379052         2.413142
 H        -2.191018         4.606627         2.098458
 H        -3.035319         0.853414         0.564742
 H        -2.152490         1.832598        -0.814298
