19
Iteration:  3009charge 0 multiplicity 1
 O        -0.148295         0.240443         0.009338
 C        -0.665775         1.444361         0.506478
 C         0.353551         2.704994         0.572666
 C        -0.221254         3.496356         1.661755
 C        -0.970522         2.605004         2.735258
 C        -1.037928         1.211526         2.125792
 C        -1.781139         3.534118         1.878434
 O        -2.692284         2.737705         0.890409
 C        -2.070841         1.864459        -0.041955
 H        -0.040878         0.272836        -0.945737
 H         1.420707         2.396566         0.939204
 H         0.336217         3.186963        -0.360254
 H         0.312237         4.315168         2.072031
 H        -0.875048         2.846684         3.798773
 H        -0.522591         0.432185         2.671158
 H        -2.053922         0.938475         2.022843
 H        -2.150497         4.412873         2.237128
 H        -2.545354         0.924755        -0.214802
 H        -1.938805         2.340761        -1.068945
