19
Iteration:  4730charge 0 multiplicity 1
 O        -0.184975         0.290687        -0.166380
 C        -0.654503         1.379275         0.668149
 C         0.225506         2.641194         0.560630
 C        -0.317574         3.540521         1.676281
 C        -1.028666         2.590050         2.686658
 C        -0.671921         1.099501         2.146985
 C        -1.842076         3.532600         1.762085
 O        -2.730444         3.029206         0.702761
 C        -2.085833         1.741587         0.282754
 H         0.398523        -0.299504         0.370978
 H         1.288185         2.335147         0.615370
 H         0.088431         3.155059        -0.367170
 H         0.453534         4.248456         2.049081
 H        -0.987151         2.859246         3.683781
 H         0.325898         0.845076         2.441059
 H        -1.483898         0.272894         2.356067
 H        -2.239605         4.457271         2.086827
 H        -2.806746         0.888637         0.414265
 H        -2.131648         1.885225        -0.843425
