19
Iteration:  2570charge 0 multiplicity 1
 O        -0.135768         0.377139        -0.260014
 C        -0.722105         1.332810         0.720903
 C         0.267702         2.538233         0.664401
 C        -0.347220         3.530245         1.611574
 C        -1.057762         2.661251         2.731793
 C        -0.917731         1.108742         2.369709
 C        -1.808864         3.499030         1.701431
 O        -2.558188         2.892947         0.814193
 C        -1.958994         1.863480        -0.000074
 H        -0.905551        -0.143658        -0.514090
 H         1.243342         2.164065         1.088324
 H         0.306399         2.977999        -0.307147
 H         0.267339         4.442438         1.868196
 H        -1.149982         3.113062         3.769780
 H         0.141645         0.780390         2.618443
 H        -1.683047         0.413592         2.778911
 H        -2.335948         4.229307         2.252866
 H        -2.731419         1.053919        -0.226175
 H        -1.738004         2.298994        -0.997789
