19
Iteration:  4925charge 0 multiplicity 1
 O        -0.189706         0.250082        -0.087404
 C        -0.645523         1.432656         0.651386
 C         0.252996         2.631167         0.546308
 C        -0.409623         3.618329         1.452624
 C        -0.935233         2.587687         2.662830
 C        -0.686006         1.152002         2.209279
 C        -1.857623         3.397210         1.887784
 O        -2.720945         3.005074         0.814874
 C        -2.123961         1.785325         0.111043
 H         0.350544        -0.385240         0.430248
 H         1.197459         2.300091         1.033867
 H         0.449117         2.973107        -0.516137
 H         0.316125         4.313690         1.887782
 H        -0.839670         3.031631         3.653822
 H         0.328759         0.904919         2.345975
 H        -1.279728         0.283378         2.402831
 H        -2.498994         4.140526         2.463483
 H        -2.853464         1.043379         0.111654
 H        -1.983949         2.120526        -0.914453
