19
Iteration:  4485
 O        -0.236042         0.196573         0.078096
 C        -0.695634         1.483050         0.609097
 C         0.268047         2.663171         0.554126
 C        -0.367621         3.570862         1.658720
 C        -0.923309         2.555048         2.658842
 C        -0.646564         1.222235         2.092059
 C        -1.837368         3.369746         1.811291
 O        -2.644495         2.992585         0.690004
 C        -2.190086         1.810470         0.151039
 H         0.426761         0.282915        -0.642783
 H         1.252934         2.223091         0.957374
 H         0.345371         3.117257        -0.461979
 H         0.014947         4.597809         1.937693
 H        -0.885244         2.537413         3.721502
 H         0.274181         0.712742         2.226695
 H        -1.471777         0.479495         2.373128
 H        -2.340168         4.084440         2.417557
 H        -2.783662         0.997409         0.539464
 H        -2.273383         1.904471        -0.980412
