19
Iteration:  1510
 O        -0.141177         0.326743        -0.116069
 C        -0.656106         1.394945         0.631073
 C         0.430271         2.518082         0.809620
 C        -0.304530         3.373993         1.798149
 C        -1.216231         2.482075         2.781774
 C        -1.073509         1.141869         2.081503
 C        -1.845262         3.518603         1.741898
 O        -2.599389         3.054284         0.658324
 C        -1.943180         1.961757        -0.077815
 H         0.569697         0.042820         0.496937
 H         1.401841         2.179362         1.225759
 H         0.756830         2.930322        -0.168099
 H         0.075596         4.381345         2.182342
 H        -0.973904         2.629543         3.829667
 H        -0.303241         0.559398         2.451374
 H        -2.000570         0.555569         2.083592
 H        -2.221667         4.374904         2.189091
 H        -2.769453         1.215576        -0.271360
 H        -1.622927         2.397902        -1.099069
