19
Iteration:  3596charge 0 multiplicity 1
 O        -0.030840         0.228261         0.004459
 C        -0.692071         1.364950         0.638384
 C        -0.009315         2.738018         0.408113
 C        -0.336436         3.609915         1.658008
 C        -0.866907         2.551561         2.665847
 C        -0.679222         1.161017         2.170544
 C        -1.814677         3.423022         1.828360
 O        -2.623831         3.001196         0.742902
 C        -2.209157         1.730028         0.228960
 H         0.221259         0.382850        -0.921866
 H         1.059518         2.624009         0.494018
 H        -0.466214         3.243841        -0.416112
 H         0.263662         4.509548         1.769586
 H        -0.946280         2.662523         3.737160
 H         0.285646         0.601088         2.574991
 H        -1.438500         0.365130         2.570946
 H        -2.304183         4.364189         2.272671
 H        -2.924964         0.802620         0.401559
 H        -2.210306         1.886346        -0.816741
