19
Iteration:  1662charge 0 multiplicity 1
 O        -0.376777         0.264739        -0.184039
 C        -0.576868         1.369678         0.700034
 C         0.413409         2.599909         0.817899
 C        -0.367375         3.416149         1.836776
 C        -1.218577         2.498856         2.721610
 C        -0.978761         1.116472         2.141246
 C        -1.916286         3.463032         1.843950
 O        -2.506995         3.059572         0.565825
 C        -1.767479         2.000940        -0.096257
 H         0.402964        -0.283647         0.114427
 H         1.428867         2.253567         1.180297
 H         0.622869         3.094037        -0.140662
 H         0.077445         4.323502         2.223860
 H        -1.190333         2.542099         3.766014
 H        -0.144906         0.688081         2.842123
 H        -1.885305         0.558011         2.277547
 H        -2.305368         4.393228         2.115329
 H        -2.537864         1.248856        -0.177869
 H        -1.625876         2.470933        -1.105651
