19
Iteration:   770charge 0 multiplicity 1
 O        -0.089450         0.312972        -0.143184
 C        -0.632785         1.400898         0.637375
 C         0.301510         2.499014         0.720523
 C        -0.309754         3.367107         1.899011
 C        -1.200783         2.556832         2.709010
 C        -1.131891         1.134563         2.108869
 C        -1.827137         3.453759         1.802259
 O        -2.526412         3.063893         0.688943
 C        -1.894243         2.000705        -0.106252
 H         0.676843        -0.133135         0.294650
 H         1.344255         2.232136         0.889194
 H         0.380744         2.939162        -0.240393
 H         0.076555         4.278886         2.249942
 H        -1.298623         2.500764         3.827856
 H        -0.371710         0.480900         2.634078
 H        -2.032029         0.630995         2.238500
 H        -2.416742         4.460691         2.065427
 H        -2.750930         1.299227        -0.054668
 H        -1.644489         2.386366        -1.094749
