19
Iteration:   816
 O        -0.292398         0.280895        -0.073757
 C        -0.643198         1.463086         0.626311
 C         0.460280         2.596359         0.832980
 C        -0.330824         3.388044         1.832537
 C        -1.152646         2.494129         2.716763
 C        -1.046000         1.170657         2.046547
 C        -1.888547         3.413765         1.813034
 O        -2.591855         3.006298         0.584013
 C        -1.830671         1.996185        -0.061665
 H         0.654027         0.175671         0.250315
 H         1.429422         2.107604         1.039188
 H         0.709411         3.134159        -0.072325
 H         0.150833         4.287263         2.156795
 H        -1.276621         2.472974         3.800045
 H        -0.236427         0.544444         2.507306
 H        -1.924424         0.521630         2.112368
 H        -2.336568         4.315326         2.325238
 H        -2.521976         1.130141        -0.222888
 H        -1.563163         2.507188        -0.948167
