19
Iteration:  1922
 O        -0.166955         0.282442        -0.097272
 C        -0.647116         1.442367         0.651028
 C         0.382049         2.479295         0.815501
 C        -0.308355         3.423575         1.837240
 C        -1.129379         2.515630         2.694289
 C        -1.214903         1.124810         2.097808
 C        -1.819067         3.479839         1.731798
 O        -2.555250         2.995701         0.701289
 C        -1.872949         2.023854        -0.132369
 H         0.687280         0.115217         0.297974
 H         1.295744         2.150305         1.180757
 H         0.614708         3.041962        -0.099223
 H         0.275861         4.294389         2.112295
 H        -1.161076         2.623804         3.790592
 H        -0.466315         0.475732         2.554549
 H        -2.274982         0.749337         2.128088
 H        -2.190605         4.436256         2.283642
 H        -2.621263         1.265314        -0.477791
 H        -1.524658         2.579239        -0.986098
