19
Iteration:   689charge 0 multiplicity 1
 O        -0.214243         0.369996        -0.147703
 C        -0.645388         1.386980         0.719698
 C         0.202349         2.610768         0.784058
 C        -0.304793         3.416161         1.898625
 C        -1.203660         2.455704         2.666514
 C        -0.998289         1.008445         2.126554
 C        -1.825544         3.554912         1.729101
 O        -2.370022         3.117170         0.522216
 C        -1.948156         1.883141         0.029931
 H         0.442554        -0.096844         0.369157
 H         1.257898         2.463279         0.826996
 H         0.006649         3.124741        -0.206301
 H         0.485722         4.007793         2.514257
 H        -1.357597         2.521351         3.745629
 H        -0.233866         0.466367         2.638618
 H        -1.972282         0.430700         2.184248
 H        -2.319737         4.242114         2.386065
 H        -2.873589         1.323528        -0.023172
 H        -1.635019         1.995165        -1.096196
