19
Iteration:  4912charge 0 multiplicity 1
 O        -0.204606         0.292822         0.011948
 C        -0.708397         1.399904         0.640650
 C         0.254650         2.608119         0.492616
 C        -0.375979         3.586600         1.575181
 C        -0.874873         2.559190         2.630658
 C        -0.686013         1.205709         2.083475
 C        -1.886932         3.446098         1.842325
 O        -2.736158         2.899960         0.829612
 C        -2.079612         1.865104         0.097582
 H         0.174696        -0.222736         0.731908
 H         1.257658         2.239199         0.839535
 H         0.467435         3.034223        -0.552408
 H         0.037097         4.594382         1.741046
 H        -0.667553         2.575436         3.651046
 H         0.263582         0.787447         2.520107
 H        -1.420551         0.590414         2.440901
 H        -2.378463         4.150831         2.486841
 H        -2.763156         0.981527         0.025832
 H        -1.876368         2.194762        -0.904877
