19
Iteration:  3904charge 0 multiplicity 1
 O        -0.218292         0.305018        -0.186082
 C        -0.637207         1.469440         0.602333
 C         0.234516         2.789184         0.461702
 C        -0.409589         3.595740         1.529986
 C        -0.805673         2.716123         2.675459
 C        -0.671151         1.195207         2.154320
 C        -1.843505         3.476853         1.774779
 O        -2.701297         2.745086         0.911046
 C        -2.119760         1.624571         0.321622
 H        -0.719340        -0.422509         0.230317
 H         1.247688         2.368418         0.955840
 H         0.490801         3.191403        -0.509659
 H        -0.054630         4.639788         1.782581
 H        -0.707550         2.929749         3.708603
 H         0.193580         0.679700         2.499333
 H        -1.651826         0.656402         2.276828
 H        -2.511344         4.301031         2.252271
 H        -2.640330         0.724808         0.579301
 H        -2.137430         1.781234        -0.824047
