19
Iteration:    78charge 0 multiplicity 1
 O        -0.120859         0.253724         0.030130
 C        -0.685015         1.439177         0.629661
 C         0.297774         2.583139         0.731886
 C        -0.318504         3.369498         1.854088
 C        -1.077272         2.461856         2.699844
 C        -1.144716         1.094252         2.027577
 C        -1.742677         3.478480         1.747366
 O        -2.569519         3.065393         0.698572
 C        -1.957706         2.055838        -0.135764
 H         0.701112         0.006026         0.445993
 H         1.312706         2.186694         0.993661
 H         0.456921         3.106610        -0.225197
 H         0.186345         4.145896         2.252934
 H        -1.017488         2.622494         3.789655
 H        -0.527782         0.300049         2.426831
 H        -2.149526         0.751581         1.935932
 H        -2.352152         4.249675         2.236316
 H        -2.687940         1.326427        -0.328466
 H        -1.573488         2.470655        -1.046220
