19
Iteration:   642
 O        -0.180790         0.268229        -0.115475
 C        -0.650726         1.410237         0.635278
 C         0.309001         2.574491         0.766320
 C        -0.261804         3.451167         1.933774
 C        -1.216469         2.482216         2.650692
 C        -1.002116         1.053540         2.047231
 C        -1.815603         3.527790         1.785533
 O        -2.513315         3.156237         0.581148
 C        -1.972946         1.880797        -0.012968
 H         0.559577        -0.100188         0.381445
 H         1.285977         2.206800         1.185279
 H         0.642968         3.245408        -0.040767
 H         0.244866         4.227722         2.427678
 H        -1.474485         2.493302         3.718921
 H        -0.182538         0.600083         2.573699
 H        -1.991338         0.497421         2.115132
 H        -2.261296         4.380578         2.362974
 H        -2.777927         1.118262         0.069459
 H        -1.845899         2.039950        -1.130557
