19
Iteration:  2159
 O        -0.101751         0.402009        -0.112815
 C        -0.702357         1.334149         0.704031
 C         0.288590         2.512866         0.725712
 C        -0.272028         3.487027         1.757337
 C        -1.183657         2.543771         2.645138
 C        -1.229015         1.097199         2.145310
 C        -1.746857         3.561632         1.780696
 O        -2.444988         2.944814         0.747706
 C        -1.875980         1.945754        -0.064352
 H        -0.358155        -0.501952         0.082853
 H         1.248906         2.233539         1.060704
 H         0.464158         2.950489        -0.290752
 H         0.258609         4.208219         2.228590
 H        -1.129695         2.565040         3.683857
 H        -0.679272         0.218609         2.566928
 H        -2.342124         0.817101         2.220642
 H        -2.227532         4.452789         2.129492
 H        -2.644691         1.243296        -0.424762
 H        -1.411090         2.537307        -0.945898
