19
Iteration:  2595
 O        -0.125968         0.344769        -0.115450
 C        -0.651213         1.443492         0.653034
 C         0.364651         2.531853         0.627638
 C        -0.272835         3.487594         1.670857
 C        -0.941383         2.658829         2.739178
 C        -0.993597         1.233865         2.117968
 C        -1.841340         3.509007         1.766144
 O        -2.715644         2.762711         0.861635
 C        -1.993276         1.878546         0.008589
 H        -0.840470        -0.295264        -0.044995
 H         1.280986         2.040795         0.925900
 H         0.533625         3.098254        -0.374867
 H         0.209677         4.406329         1.880566
 H        -0.825270         2.743607         3.758873
 H        -0.346731         0.527840         2.677150
 H        -2.042241         0.928237         2.200335
 H        -2.398920         4.363775         2.127823
 H        -2.611119         1.061326        -0.342817
 H        -1.774607         2.541143        -0.946621
