19
Iteration:  4329
 O        -0.107706         0.341117        -0.116215
 C        -0.696787         1.419267         0.626304
 C         0.218553         2.629227         0.530965
 C        -0.336399         3.542682         1.569995
 C        -0.863114         2.693701         2.633420
 C        -0.743544         1.226466         2.177238
 C        -1.876812         3.440200         1.799592
 O        -2.696793         2.831268         0.872585
 C        -2.130020         1.728937         0.215165
 H        -0.765704        -0.384918        -0.229891
 H         1.287754         2.487531         0.793065
 H         0.272234         3.080320        -0.547270
 H         0.154398         4.459133         1.618920
 H        -0.664642         2.944627         3.695803
 H         0.229756         0.759718         2.452945
 H        -1.580796         0.668120         2.486290
 H        -2.320232         4.240323         2.290685
 H        -2.861908         0.972162         0.405890
 H        -1.973820         1.905996        -0.900594
