19
Iteration:   296charge 0 multiplicity 1
 O        -0.219754         0.230982        -0.087672
 C        -0.633124         1.416780         0.622373
 C         0.382276         2.563656         0.747041
 C        -0.327532         3.467132         1.848299
 C        -1.136726         2.491175         2.759134
 C        -1.125766         1.096057         2.068131
 C        -1.771578         3.480957         1.789800
 O        -2.573462         3.009899         0.701035
 C        -1.871491         2.060834        -0.135297
 H         0.616449        -0.111096         0.346419
 H         1.269659         2.245537         1.300034
 H         0.544082         3.050011        -0.136187
 H         0.338596         4.362634         2.070927
 H        -1.404646         2.368851         3.820613
 H        -0.365593         0.425963         2.552733
 H        -2.079332         0.719064         2.180102
 H        -2.363296         4.353960         2.063516
 H        -2.643572         1.307748        -0.474064
 H        -1.649263         2.561006        -1.137552
