19
Iteration:  2989charge 0 multiplicity 1
 O        -0.168644         0.209548         0.018744
 C        -0.690410         1.423835         0.617912
 C         0.174278         2.729746         0.548836
 C        -0.243656         3.533252         1.763361
 C        -0.973870         2.479466         2.726683
 C        -0.979173         1.192536         2.090961
 C        -1.802678         3.470550         1.783700
 O        -2.562490         2.918249         0.785178
 C        -1.954761         1.843799         0.051250
 H        -0.288310         0.352997        -0.948278
 H         1.257199         2.460470         0.437844
 H        -0.178177         3.255347        -0.289385
 H         0.180707         4.542138         1.977856
 H        -0.965356         2.685047         3.801301
 H        -0.137440         0.625583         2.495756
 H        -1.891317         0.583536         2.253020
 H        -2.308251         4.268102         2.217023
 H        -2.670851         1.030812         0.027257
 H        -1.883470         2.123660        -1.019127
