19
Iteration:  1403charge 0 multiplicity 1
 O        -0.242252         0.358505        -0.274539
 C        -0.649280         1.384130         0.666957
 C         0.383894         2.553117         0.752313
 C        -0.330024         3.514924         1.927045
 C        -1.238412         2.472639         2.771287
 C        -0.979119         1.158425         2.255382
 C        -1.841659         3.457482         1.776279
 O        -2.454366         3.074019         0.525344
 C        -1.950795         1.873907         0.006800
 H         0.438163        -0.241907         0.001039
 H         1.329308         2.073290         1.063907
 H         0.390159         2.902102        -0.295120
 H         0.225567         4.478425         2.268914
 H        -1.445366         2.492784         3.819559
 H        -0.262428         0.536163         2.799669
 H        -1.858621         0.388876         2.160334
 H        -2.330111         4.342596         2.138176
 H        -2.741276         1.146161        -0.088600
 H        -1.568370         2.053201        -0.967030
