19
Iteration:  2531
 O        -0.145653         0.222303         0.025258
 C        -0.650002         1.501819         0.521495
 C         0.327197         2.755232         0.638907
 C        -0.303008         3.550816         1.791322
 C        -1.072659         2.451852         2.638763
 C        -0.817506         1.065616         2.130289
 C        -1.787952         3.479653         1.755994
 O        -2.552288         3.038498         0.635971
 C        -2.176260         1.813837         0.123852
 H        -0.861439        -0.402257         0.286010
 H         1.325784         2.414528         0.679953
 H         0.432795         3.395844        -0.323651
 H         0.223943         4.383786         2.139871
 H        -1.225183         2.608482         3.628760
 H         0.063143         0.608629         2.533995
 H        -1.678557         0.422888         2.342619
 H        -2.480126         4.106759         2.238184
 H        -2.864686         1.050378         0.463760
 H        -2.229597         1.875196        -0.984748
