19
Iteration:   631charge 0 multiplicity 1
 O        -0.254031         0.331941        -0.174479
 C        -0.663159         1.416324         0.668933
 C         0.346757         2.580612         0.762301
 C        -0.329457         3.484653         1.882450
 C        -1.241033         2.438203         2.713136
 C        -1.064493         1.109478         2.152269
 C        -1.754061         3.466326         1.737267
 O        -2.479497         3.104568         0.584691
 C        -1.849849         1.920471         0.005800
 H         0.503296        -0.109832         0.323029
 H         1.357796         2.104968         0.893179
 H         0.212848         2.948175        -0.301764
 H         0.170668         4.255288         2.387152
 H        -1.433775         2.578993         3.781492
 H        -0.274080         0.537662         2.588380
 H        -1.870276         0.289824         2.217709
 H        -2.387445         4.210624         2.275189
 H        -2.628757         1.123660         0.061761
 H        -1.484370         2.151869        -1.068303
