19
Iteration:  1378
 O        -0.176947         0.295563        -0.074933
 C        -0.628901         1.438164         0.583668
 C         0.260668         2.699327         0.757693
 C        -0.351481         3.396478         1.891431
 C        -1.173435         2.410933         2.662138
 C        -1.079564         1.091855         2.100298
 C        -1.762949         3.562607         1.757169
 O        -2.411548         3.106622         0.568264
 C        -1.985696         1.856759         0.032051
 H         0.456707        -0.262344         0.409621
 H         1.316756         2.388360         0.979089
 H         0.120052         3.364697        -0.149462
 H         0.370423         4.121086         2.438892
 H        -1.126435         2.536759         3.847333
 H        -0.366801         0.428027         2.555102
 H        -1.848300         0.271499         1.868750
 H        -2.426908         4.221177         2.368178
 H        -2.806132         1.178831         0.187034
 H        -1.846797         1.910664        -1.025171
