19
Iteration:  3729
 O        -0.118700         0.211775         0.087422
 C        -0.687668         1.492478         0.578257
 C         0.194962         2.795204         0.326933
 C        -0.388157         3.575291         1.565998
 C        -0.872363         2.624989         2.685583
 C        -0.762882         1.240484         2.085515
 C        -1.821005         3.450966         1.852601
 O        -2.671946         2.723466         0.999462
 C        -2.128845         1.760798         0.146239
 H        -0.016463         0.222311        -0.893025
 H         1.302662         2.705001         0.400504
 H        -0.027509         3.296554        -0.624686
 H         0.056408         4.545599         1.725605
 H        -0.688176         2.776407         3.780567
 H         0.136662         0.603925         2.445089
 H        -1.601744         0.532135         2.261468
 H        -2.265805         4.335771         2.119020
 H        -2.814449         0.816875         0.224720
 H        -2.073578         1.967708        -0.907305
