19
Iteration:   534
 O        -0.228772         0.316229        -0.139910
 C        -0.717475         1.411504         0.648803
 C         0.294363         2.588826         0.731776
 C        -0.309058         3.499700         1.845686
 C        -1.212553         2.517839         2.746631
 C        -1.147240         1.105535         2.151665
 C        -1.721376         3.458072         1.775994
 O        -2.416754         2.982138         0.716819
 C        -1.845869         1.917680        -0.171381
 H         0.685846         0.047699         0.197610
 H         1.087677         2.120053         1.238634
 H         0.540736         3.206513        -0.194800
 H         0.228488         4.457391         2.280541
 H        -1.369142         2.533001         3.787237
 H        -0.545535         0.314332         2.628542
 H        -2.300489         0.789527         2.103313
 H        -2.302460         4.149202         2.283722
 H        -2.562204         1.161575        -0.446665
 H        -1.455661         2.514615        -1.066793
