19
Iteration:  2590charge 0 multiplicity 1
 O        -0.132501         0.358635        -0.165566
 C        -0.678324         1.382561         0.671209
 C         0.342777         2.542309         0.647557
 C        -0.271011         3.547104         1.693728
 C        -0.933887         2.645596         2.715154
 C        -0.971403         1.223098         2.178129
 C        -1.819146         3.509995         1.759996
 O        -2.718540         2.751056         0.832090
 C        -2.003977         1.892089        -0.010177
 H        -0.815419        -0.350222        -0.234074
 H         1.288055         2.070361         1.021226
 H         0.362226         2.990726        -0.301512
 H         0.306665         4.486048         1.919160
 H        -0.822652         2.753771         3.855342
 H        -0.345014         0.581846         2.815399
 H        -2.032183         0.958855         2.386165
 H        -2.272241         4.477122         2.061541
 H        -2.592745         1.009019        -0.392151
 H        -1.670865         2.408591        -0.865449
