19
Iteration:  4559
 O        -0.128176         0.308029        -0.061566
 C        -0.732801         1.444640         0.597978
 C         0.224393         2.599872         0.643288
 C        -0.327733         3.520481         1.590861
 C        -0.907028         2.605979         2.679519
 C        -0.790589         1.188765         2.070174
 C        -1.808197         3.437788         1.794276
 O        -2.674754         2.980104         0.783595
 C        -2.143112         1.777452         0.113163
 H         0.100370        -0.320556         0.629120
 H         1.126867         2.261150         0.999548
 H         0.381639         3.051555        -0.361863
 H         0.220499         4.472883         1.865399
 H        -0.685595         2.719552         3.714139
 H         0.187143         0.760957         2.497356
 H        -1.568611         0.513716         2.305072
 H        -2.406367         4.154960         2.339833
 H        -2.769646         0.898724         0.336403
 H        -2.155590         2.039927        -0.958347
