19
Iteration:  4871
 O        -0.260973         0.315785        -0.198670
 C        -0.645757         1.380625         0.671049
 C         0.212730         2.664085         0.460602
 C        -0.257911         3.576140         1.653089
 C        -0.936162         2.722964         2.632769
 C        -0.927688         1.255497         2.186924
 C        -1.814244         3.531502         1.832619
 O        -2.598448         2.679655         0.973284
 C        -1.979309         1.742428         0.107057
 H         0.371308        -0.279944         0.270073
 H         1.267189         2.535119         0.521044
 H        -0.008617         2.889921        -0.576625
 H         0.170122         4.525298         2.009784
 H        -0.979701         2.901878         3.685594
 H        -0.220801         0.630947         2.579869
 H        -2.042558         0.969079         2.329125
 H        -2.394865         4.442903         1.924783
 H        -2.577813         0.904088         0.096132
 H        -1.886112         2.125480        -0.961420
