19
Iteration:  2323
 O        -0.209591         0.287180        -0.066618
 C        -0.757989         1.340759         0.711173
 C         0.146694         2.639381         0.745066
 C        -0.294359         3.564695         1.816706
 C        -1.069217         2.486560         2.686075
 C        -0.892290         1.038042         2.209625
 C        -1.789851         3.497132         1.780899
 O        -2.455194         3.055502         0.586125
 C        -1.953734         1.896998        -0.093414
 H        -0.770255         0.068405        -0.844700
 H         1.163118         2.251891         0.931854
 H         0.259230         3.084180        -0.315419
 H         0.351100         4.300646         2.415786
 H        -1.228264         2.672953         3.810694
 H         0.112884         0.754194         2.624031
 H        -1.586531         0.271508         2.664857
 H        -2.341469         4.384889         2.202685
 H        -2.669872         1.007260        -0.251192
 H        -1.554464         2.218629        -1.028887
