19
Iteration:  3261charge 0 multiplicity 1
 O        -0.073651         0.253761        -0.022683
 C        -0.617745         1.455077         0.566109
 C         0.337512         2.673378         0.539318
 C        -0.352892         3.560181         1.588331
 C        -0.927082         2.591226         2.713898
 C        -0.966173         1.183786         2.097877
 C        -1.874159         3.447835         1.842426
 O        -2.713403         2.802130         0.975454
 C        -2.013778         1.885288         0.006626
 H        -0.784196        -0.291038        -0.446087
 H         1.310288         2.357510         0.723303
 H         0.429867         3.064265        -0.454521
 H         0.177909         4.427297         2.041193
 H        -0.685809         2.790228         3.717996
 H        -0.114085         0.538057         2.487396
 H        -1.978919         0.827524         2.140692
 H        -2.274464         4.425489         2.085461
 H        -2.802586         1.111443        -0.002692
 H        -1.942353         2.345621        -0.983942
