19
Iteration:  4465
 O        -0.315622         0.189333        -0.035160
 C        -0.634800         1.423454         0.561061
 C         0.271287         2.743045         0.541125
 C        -0.356561         3.574810         1.676318
 C        -0.930280         2.577251         2.671519
 C        -0.704014         1.161976         2.110808
 C        -1.864498         3.506411         1.832488
 O        -2.684894         2.975677         0.743379
 C        -2.076449         1.699376         0.152261
 H         0.650957         0.132400         0.174678
 H         1.368752         2.456275         0.848615
 H         0.317083         3.303021        -0.399826
 H         0.306084         4.346061         1.949601
 H        -0.936363         2.867344         3.715468
 H         0.278393         0.813631         2.387847
 H        -1.466428         0.319411         2.312927
 H        -2.351505         4.296475         2.298315
 H        -2.726958         0.846316         0.522587
 H        -2.134060         1.799501        -0.895466
