19
Iteration:    91
 O        -0.167611         0.282418        -0.058407
 C        -0.691314         1.409787         0.598938
 C         0.305822         2.565083         0.711137
 C        -0.323061         3.453676         1.766194
 C        -1.053396         2.426226         2.805229
 C        -1.241566         1.107941         2.081478
 C        -1.873833         3.518604         1.888692
 O        -2.464423         3.023971         0.653426
 C        -1.811532         1.984218        -0.148615
 H         0.652481         0.154800         0.497735
 H         1.285928         2.324550         0.990578
 H         0.291779         3.088532        -0.330653
 H         0.280435         4.244636         2.183430
 H        -0.928320         2.515544         3.931113
 H        -0.617734         0.372451         2.486945
 H        -2.319981         0.712023         2.166864
 H        -2.232490         4.560118         2.231000
 H        -2.572909         1.151787        -0.208220
 H        -1.692546         2.442760        -1.113635
