19
Iteration:  1156charge 0 multiplicity 1
 O        -0.235885         0.315332        -0.084870
 C        -0.671105         1.430492         0.614105
 C         0.308223         2.632780         0.769554
 C        -0.378419         3.458067         1.862032
 C        -1.184311         2.444454         2.716275
 C        -0.994541         1.144979         2.052691
 C        -1.808106         3.427190         1.777851
 O        -2.444538         3.018892         0.670895
 C        -1.930086         1.893144        -0.090855
 H         0.502738        -0.117216         0.324515
 H         1.299755         2.317568         1.177787
 H         0.458164         3.292191        -0.127754
 H         0.128695         4.459504         2.166917
 H        -1.343263         2.703178         3.805201
 H        -0.140444         0.589277         2.550878
 H        -1.934834         0.549631         2.116885
 H        -2.147690         4.415542         2.219089
 H        -2.642051         1.104733        -0.183538
 H        -1.630177         2.221234        -1.055371
