19
Iteration:  1869
 O        -0.289225         0.226193        -0.113013
 C        -0.603546         1.378111         0.659808
 C         0.406208         2.576769         0.778936
 C        -0.431928         3.457444         1.834594
 C        -1.266011         2.446462         2.688444
 C        -0.952300         1.013407         2.156322
 C        -1.827150         3.486409         1.812374
 O        -2.492935         3.180852         0.540031
 C        -1.892238         2.008623        -0.062385
 H         0.505540        -0.138569         0.265810
 H         1.338221         2.195282         1.279383
 H         0.794628         3.140250        -0.106746
 H         0.100562         4.273013         2.299715
 H        -1.214401         2.682210         3.763451
 H        -0.062071         0.531808         2.606855
 H        -1.811852         0.393426         2.234181
 H        -2.237069         4.442307         2.425902
 H        -2.810589         1.336273        -0.173980
 H        -1.526033         2.284945        -1.059313
