19
Iteration:  1545charge 0 multiplicity 1
 O        -0.336394         0.294221        -0.209176
 C        -0.663673         1.420992         0.682429
 C         0.433199         2.632719         0.835256
 C        -0.356843         3.479953         1.917024
 C        -1.236371         2.488354         2.726546
 C        -0.911810         1.083302         2.166051
 C        -1.819069         3.426753         1.736570
 O        -2.458984         3.103108         0.527911
 C        -1.921881         1.883064        -0.038810
 H         0.366100        -0.275191         0.140990
 H         1.431032         2.349217         1.272169
 H         0.408674         3.185418        -0.114389
 H         0.078535         4.367991         2.333980
 H        -1.366967         2.566297         3.757547
 H        -0.052020         0.677996         2.589496
 H        -1.800718         0.393736         2.383622
 H        -2.533759         4.224756         2.153965
 H        -2.771336         1.182602        -0.072077
 H        -1.551419         2.051420        -1.061729
