19
Iteration:   232charge 0 multiplicity 1
 O        -0.138959         0.292396        -0.101861
 C        -0.684924         1.362607         0.622035
 C         0.323297         2.572897         0.814911
 C        -0.284842         3.439085         1.893168
 C        -1.109900         2.452321         2.623163
 C        -1.020627         1.017519         2.147541
 C        -1.880821         3.542524         1.753856
 O        -2.512028         3.189222         0.549484
 C        -2.032446         1.966679        -0.035375
 H         0.709099        -0.048124         0.276499
 H         1.226634         2.120254         1.367565
 H         0.623619         3.012772        -0.184277
 H         0.416772         4.227702         2.432958
 H        -1.335188         2.574204         3.677157
 H        -0.110914         0.431531         2.597712
 H        -1.856487         0.300193         2.307454
 H        -2.468654         4.236218         2.361975
 H        -2.757381         1.137835         0.124422
 H        -1.983517         2.126587        -1.171835
