19
Iteration:  3408charge 0 multiplicity 1
 O        -0.241870         0.223342        -0.062771
 C        -0.630095         1.399937         0.618061
 C         0.272736         2.736362         0.512256
 C        -0.383548         3.601497         1.692037
 C        -0.943309         2.585362         2.729817
 C        -0.675607         1.214364         2.080182
 C        -1.846642         3.452623         1.786974
 O        -2.682883         2.933317         0.744580
 C        -2.054396         1.705773         0.237112
 H        -0.529791         0.182052        -0.979441
 H         1.309298         2.519631         0.870146
 H         0.229435         3.453494        -0.274369
 H         0.074963         4.607000         1.970067
 H        -0.956682         2.625078         3.843244
 H         0.215824         0.674015         2.575555
 H        -1.497990         0.386740         2.214072
 H        -2.454416         4.241452         2.207663
 H        -2.621128         0.759108         0.505763
 H        -2.076732         1.750099        -0.919727
