19
Iteration:   252charge 0 multiplicity 1
 O        -0.301142         0.332118        -0.191353
 C        -0.680355         1.411849         0.670448
 C         0.419164         2.532357         0.847743
 C        -0.370009         3.450372         1.796058
 C        -1.254978         2.464521         2.770276
 C        -0.954714         1.140365         2.133908
 C        -1.802203         3.430473         1.780819
 O        -2.480958         3.102996         0.549036
 C        -1.906912         1.935533        -0.010363
 H         0.612283         0.079989         0.139476
 H         1.303460         2.081615         1.303979
 H         0.539591         2.935706        -0.073456
 H         0.116032         4.371256         2.154352
 H        -1.381084         2.562529         3.880493
 H        -0.128749         0.556525         2.668914
 H        -1.790025         0.494454         2.131553
 H        -2.108226         4.417116         2.231364
 H        -2.715632         1.128589        -0.119543
 H        -1.573764         2.088520        -1.120692
