19
Iteration:  3126charge 0 multiplicity 1
 O         0.057954         0.406051        -0.174385
 C        -0.696480         1.378104         0.669116
 C         0.075396         2.609061         0.508312
 C        -0.340850         3.427242         1.747769
 C        -1.056527         2.515456         2.715800
 C        -0.859340         1.079230         2.196470
 C        -1.784781         3.512758         1.825626
 O        -2.520961         3.109736         0.665969
 C        -2.153130         1.768504         0.150015
 H        -0.180016        -0.434958         0.262496
 H         1.034047         2.332140         0.632488
 H        -0.132211         3.042351        -0.498935
 H         0.190561         4.311929         2.012861
 H        -1.026452         2.831335         3.763148
 H         0.134416         0.700611         2.558291
 H        -1.713679         0.399793         2.465007
 H        -2.165599         4.403773         2.242412
 H        -2.892431         1.082862         0.629715
 H        -2.273669         1.660995        -0.901895
