19
Iteration:  4451
 O        -0.248072         0.253052        -0.182254
 C        -0.661446         1.411628         0.717246
 C         0.187313         2.708943         0.500607
 C        -0.305380         3.546080         1.637071
 C        -1.042002         2.584730         2.698848
 C        -0.731438         1.227476         2.194605
 C        -1.793853         3.469357         1.775184
 O        -2.578072         2.893230         0.783810
 C        -2.098838         1.763565         0.167383
 H         0.310820        -0.383134         0.295364
 H         1.321360         2.525029         0.579998
 H         0.026631         3.093526        -0.560969
 H         0.056539         4.556465         2.088585
 H        -0.815115         2.729328         3.749880
 H         0.183339         0.927412         2.689400
 H        -1.549908         0.548725         2.507013
 H        -2.376685         4.352049         2.216363
 H        -2.727739         0.914061         0.304541
 H        -2.099816         1.910933        -0.994518
