19
Iteration:  3700charge 0 multiplicity 1
 O        -0.006739         0.333469        -0.058230
 C        -0.787277         1.375518         0.678851
 C         0.126707         2.655188         0.443975
 C        -0.350929         3.617756         1.537833
 C        -0.845272         2.651956         2.633770
 C        -0.656560         1.174450         2.235553
 C        -1.857737         3.450855         1.864367
 O        -2.760338         2.767496         0.959924
 C        -2.150319         1.817256         0.047539
 H        -0.619223        -0.369022        -0.314176
 H         1.182033         2.453638         0.479132
 H         0.108398         3.078503        -0.594218
 H         0.212644         4.568658         1.584116
 H        -0.570506         2.871066         3.633775
 H         0.346998         0.849939         2.486917
 H        -1.406220         0.503490         2.565737
 H        -2.406614         4.336299         2.330405
 H        -2.908636         1.149688        -0.159622
 H        -1.644487         2.079667        -0.932821
