19
Iteration:  4524charge 0 multiplicity 1
 O        -0.119497         0.335474        -0.204111
 C        -0.624078         1.348741         0.682121
 C         0.114177         2.648231         0.563729
 C        -0.222992         3.540548         1.687191
 C        -1.060983         2.592335         2.704666
 C        -0.896985         1.236890         2.217309
 C        -1.730322         3.492221         1.739414
 O        -2.596632         2.887054         0.759096
 C        -2.020766         1.716137         0.226958
 H        -0.942420        -0.113851        -0.454351
 H         1.149751         2.526437         0.308798
 H        -0.299988         3.204053        -0.297611
 H         0.376479         4.495782         1.764824
 H        -0.957283         3.043932         3.701271
 H        -0.027320         0.732083         2.825285
 H        -1.758956         0.666709         2.410419
 H        -2.311986         4.334759         2.305726
 H        -2.793838         0.868191         0.308049
 H        -1.895353         1.834657        -0.811872
