19
Iteration:  2658
 O        -0.198306         0.375452        -0.158621
 C        -0.675660         1.423260         0.695792
 C         0.288126         2.588225         0.596510
 C        -0.330247         3.500284         1.623756
 C        -1.040720         2.563377         2.781868
 C        -0.883796         1.169407         2.293038
 C        -1.824680         3.452326         1.813664
 O        -2.575158         2.946231         0.717700
 C        -2.006608         1.854137        -0.020441
 H        -0.584299        -0.454832         0.123071
 H         1.297028         2.243556         0.896441
 H         0.144165         2.882279        -0.381194
 H         0.140901         4.431094         1.868307
 H        -0.858834         2.602324         3.815800
 H         0.121726         0.771729         2.624079
 H        -1.677603         0.419153         2.442503
 H        -2.295022         4.285710         2.185531
 H        -2.778214         1.032368        -0.137072
 H        -1.683677         2.092448        -0.998629
