19
Iteration:  3052charge 0 multiplicity 1
 O        -0.282263         0.216108        -0.132149
 C        -0.613616         1.403299         0.664912
 C         0.320340         2.540894         0.628934
 C        -0.334416         3.551173         1.583930
 C        -0.997027         2.619344         2.697584
 C        -0.828545         1.141480         2.280736
 C        -1.875393         3.453258         1.766471
 O        -2.786460         2.794039         0.862763
 C        -1.927570         2.071721        -0.012535
 H         0.361116         0.487081        -0.803172
 H         1.292397         2.145683         1.182706
 H         0.535781         3.072608        -0.324457
 H         0.227694         4.467755         1.744147
 H        -0.715967         2.724673         3.765554
 H         0.185875         0.882856         2.627997
 H        -1.575149         0.495643         2.665978
 H        -2.375280         4.237361         2.250815
 H        -2.511106         1.267612        -0.472405
 H        -1.502492         2.727171        -0.845896
