19
Iteration:  4417charge 0 multiplicity 1
 O        -0.027722         0.373086        -0.118942
 C        -0.741625         1.369825         0.705683
 C         0.170662         2.641185         0.516703
 C        -0.311418         3.553556         1.641816
 C        -0.862206         2.605131         2.690277
 C        -0.817821         1.215202         2.227444
 C        -1.778972         3.495039         1.777336
 O        -2.682554         2.872237         0.782822
 C        -2.167494         1.693007         0.133954
 H        -0.788514        -0.061898        -0.538050
 H         1.219642         2.327759         0.692411
 H         0.037355         2.909787        -0.588241
 H         0.274070         4.500093         1.942383
 H        -0.519137         2.920986         3.702559
 H         0.049906         0.726636         2.705137
 H        -1.698125         0.678926         2.532132
 H        -2.411322         4.404708         2.083059
 H        -2.863876         0.924600         0.341193
 H        -2.056344         1.925031        -1.013215
