19
Iteration:  4107charge 0 multiplicity 1
 O        -0.179777         0.277507        -0.138641
 C        -0.730663         1.354518         0.729320
 C         0.149877         2.656424         0.486850
 C        -0.389422         3.597447         1.491732
 C        -0.813438         2.705717         2.644284
 C        -0.664627         1.225565         2.240601
 C        -1.845730         3.429922         1.775896
 O        -2.723355         2.843503         0.882746
 C        -2.052145         1.679825         0.252344
 H         0.035810         0.705100        -0.981837
 H         1.248670         2.566718         0.650116
 H        -0.170445         2.999253        -0.571991
 H         0.097868         4.604460         1.745493
 H        -0.831469         3.094052         3.651081
 H         0.357436         0.783329         2.427131
 H        -1.334212         0.594015         2.713122
 H        -2.326434         4.291238         2.261804
 H        -2.751525         0.823602         0.379603
 H        -1.959818         1.856862        -0.828455
