19
Iteration:   726
 O        -0.283178         0.289161        -0.183914
 C        -0.646612         1.446779         0.615098
 C         0.364901         2.541419         0.839643
 C        -0.356920         3.451023         1.907750
 C        -1.207406         2.484690         2.744640
 C        -0.943953         1.167395         2.104961
 C        -1.825699         3.442848         1.789315
 O        -2.428854         3.096886         0.554877
 C        -1.973472         1.916759        -0.044500
 H         0.488606        -0.197149         0.199476
 H         1.363635         2.282534         1.204282
 H         0.492841         3.193485         0.026875
 H         0.259576         4.189296         2.359677
 H        -1.457892         2.671701         3.791298
 H        -0.156631         0.553929         2.624223
 H        -1.772821         0.526043         2.084292
 H        -2.571874         4.147918         2.111067
 H        -2.601283         1.007394         0.029601
 H        -1.815931         2.101833        -1.064068
