19
Iteration:  3330
 O        -0.256709         0.281065        -0.142019
 C        -0.645136         1.456366         0.687748
 C         0.237660         2.710838         0.527927
 C        -0.325464         3.553607         1.674937
 C        -1.004382         2.554459         2.670191
 C        -0.762058         1.164908         2.099802
 C        -1.885227         3.437051         1.826159
 O        -2.562493         2.959397         0.734418
 C        -2.104773         1.718408         0.242103
 H         0.716995         0.311034        -0.061860
 H         1.287419         2.505052         0.736709
 H         0.289405         3.150009        -0.428047
 H         0.242773         4.434860         1.913695
 H        -1.031323         2.539341         3.811004
 H         0.169921         0.696653         2.509757
 H        -1.688978         0.517040         2.069102
 H        -2.442880         4.323805         2.208225
 H        -2.487561         0.802350         0.658839
 H        -2.315373         1.783232        -0.848287
