19
Iteration:  2914
 O        -0.236657         0.352903        -0.214970
 C        -0.631988         1.385153         0.695266
 C         0.223015         2.679890         0.594707
 C        -0.274955         3.456328         1.814755
 C        -1.096766         2.554481         2.659811
 C        -0.867679         1.082885         2.183977
 C        -1.841620         3.488224         1.771850
 O        -2.407562         3.010154         0.537473
 C        -2.114419         1.703130         0.327526
 H         0.025034         0.856581        -0.997938
 H         1.293589         2.531357         0.680919
 H        -0.073099         3.328234        -0.290717
 H         0.248012         4.298802         2.307255
 H        -1.107802         2.853297         3.704814
 H         0.053018         0.848899         2.757979
 H        -1.755240         0.499732         2.579126
 H        -2.299231         4.333025         2.099720
 H        -2.910860         1.097736         0.919727
 H        -2.139893         1.395655        -0.709111
