19
Iteration:  1249
 O        -0.156512         0.252916        -0.047467
 C        -0.642508         1.417417         0.594359
 C         0.340629         2.628734         0.667411
 C        -0.315812         3.404018         1.765537
 C        -1.140695         2.517386         2.769178
 C        -1.147541         1.041325         2.162875
 C        -1.842276         3.476886         1.844674
 O        -2.585491         3.020777         0.683975
 C        -1.838608         2.024438        -0.118057
 H         0.705653        -0.038347         0.356979
 H         1.389552         2.428262         0.889804
 H         0.309782         3.072343        -0.341561
 H         0.215009         4.385120         2.049562
 H        -1.106639         2.566633         3.900540
 H        -0.341180         0.451981         2.632619
 H        -2.171359         0.540883         2.032836
 H        -2.362525         4.286555         2.348380
 H        -2.556626         1.207510        -0.501696
 H        -1.405677         2.652968        -0.987394
