19
Iteration:   727
 O        -0.282162         0.294048        -0.174578
 C        -0.653036         1.441255         0.616782
 C         0.364088         2.542995         0.844192
 C        -0.356785         3.454563         1.910996
 C        -1.198410         2.479541         2.733850
 C        -0.943266         1.166876         2.093255
 C        -1.825809         3.445159         1.783798
 O        -2.433526         3.097722         0.557514
 C        -1.970878         1.920810        -0.042113
 H         0.501150        -0.197808         0.207013
 H         1.385419         2.238752         1.229627
 H         0.516622         3.182335         0.004153
 H         0.227850         4.177416         2.363638
 H        -1.434882         2.679589         3.796486
 H        -0.153837         0.539466         2.614468
 H        -1.774045         0.490013         2.090267
 H        -2.598437         4.186349         2.121650
 H        -2.591840         0.995922         0.012934
 H        -1.852075         2.090690        -1.071149
