19
Iteration:  2160
 O        -0.089335         0.405140        -0.102597
 C        -0.714197         1.331123         0.705914
 C         0.282748         2.506134         0.719992
 C        -0.269302         3.484444         1.755389
 C        -1.166757         2.537356         2.640508
 C        -1.230696         1.095097         2.144344
 C        -1.748927         3.572566         1.788471
 O        -2.455552         2.944595         0.745107
 C        -1.872248         1.950094        -0.070723
 H        -0.369967        -0.491618         0.076889
 H         1.263289         2.234341         1.062220
 H         0.430070         2.977719        -0.260268
 H         0.279235         4.188639         2.242019
 H        -1.124478         2.552449         3.682402
 H        -0.699659         0.223912         2.580899
 H        -2.348290         0.789887         2.219266
 H        -2.233542         4.457489         2.091333
 H        -2.663105         1.260511        -0.407796
 H        -1.406781         2.551432        -0.977374
