19
Iteration:  3338charge 0 multiplicity 1
 O        -0.178196         0.313294        -0.141453
 C        -0.666935         1.423513         0.624964
 C         0.228874         2.727380         0.479280
 C        -0.282283         3.552134         1.707563
 C        -1.018644         2.521987         2.641207
 C        -0.800034         1.160857         2.121658
 C        -1.819775         3.488355         1.868846
 O        -2.592936         2.955243         0.693383
 C        -2.144327         1.694191         0.269068
 H         0.699266         0.251821         0.256060
 H         1.232853         2.431294         0.662007
 H         0.161807         3.159876        -0.529685
 H         0.265555         4.379227         2.056982
 H        -1.142253         2.715678         3.672845
 H         0.159325         0.714956         2.591293
 H        -1.629273         0.480428         2.435796
 H        -2.415847         4.169966         2.453120
 H        -2.913883         0.901310         0.606224
 H        -2.276423         1.737545        -0.799126
