19
Iteration:  4686
 O        -0.334299         0.209760        -0.044579
 C        -0.707695         1.439557         0.663193
 C         0.164422         2.706798         0.538501
 C        -0.290667         3.554683         1.748610
 C        -0.836991         2.627841         2.760584
 C        -0.750509         1.183870         2.165903
 C        -1.868131         3.477412         1.837594
 O        -2.625659         2.866626         0.728510
 C        -1.995900         1.780915        -0.024853
 H         0.636931         0.209445        -0.218154
 H         1.276991         2.568812         0.655568
 H        -0.073067         3.130992        -0.420243
 H         0.135744         4.583455         1.870870
 H        -0.700245         2.880958         3.776299
 H         0.131340         0.653381         2.444949
 H        -1.698182         0.539044         2.333817
 H        -2.593429         4.188972         2.264133
 H        -2.747045         0.919469         0.034611
 H        -1.824184         1.902754        -1.156921
