19
Iteration:   950charge 0 multiplicity 1
 O        -0.311748         0.328077        -0.151074
 C        -0.627340         1.406106         0.636085
 C         0.359939         2.605081         0.843708
 C        -0.325727         3.491787         1.854098
 C        -1.194061         2.490290         2.726382
 C        -0.949944         1.050477         2.145054
 C        -1.869806         3.482985         1.763728
 O        -2.508475         3.062216         0.552599
 C        -1.862677         1.917799        -0.042167
 H         0.510801        -0.107465         0.169604
 H         1.325519         2.191408         1.218556
 H         0.610814         3.093798        -0.153990
 H         0.312824         4.389153         2.173810
 H        -1.466784         2.569828         3.816580
 H        -0.123121         0.531594         2.645869
 H        -1.828997         0.280718         2.213712
 H        -2.492395         4.109837         2.321320
 H        -2.589061         1.048380        -0.098557
 H        -1.738522         2.378473        -1.067592
