19
Iteration:   940
 O        -0.256273         0.356025        -0.148350
 C        -0.655844         1.400278         0.711758
 C         0.356932         2.499613         0.764793
 C        -0.328476         3.545023         1.831251
 C        -1.278302         2.398363         2.757246
 C        -0.918465         1.127930         2.183544
 C        -1.804319         3.375438         1.827479
 O        -2.511488         3.090976         0.554060
 C        -1.914734         1.982438        -0.122319
 H         0.550794        -0.058236         0.281193
 H         1.363442         2.189899         1.134446
 H         0.381642         3.016732        -0.244668
 H         0.177520         4.516993         2.020881
 H        -1.470829         2.507752         3.871543
 H        -0.032439         0.695391         2.656400
 H        -1.891875         0.473705         2.326120
 H        -2.342747         4.236767         2.213660
 H        -2.696730         1.228498        -0.267064
 H        -1.473515         2.153685        -1.139736
