19
Iteration:  1379
 O        -0.183872         0.297530        -0.088967
 C        -0.619978         1.433300         0.590360
 C         0.266194         2.699490         0.762420
 C        -0.347262         3.391097         1.881613
 C        -1.173992         2.426158         2.664539
 C        -1.082764         1.089710         2.099442
 C        -1.774096         3.561219         1.755535
 O        -2.410181         3.104317         0.572128
 C        -1.977900         1.856488         0.031122
 H         0.462363        -0.273203         0.405137
 H         1.317622         2.400254         1.001088
 H         0.097085         3.377482        -0.125178
 H         0.374475         4.154201         2.463023
 H        -1.140721         2.554312         3.838764
 H        -0.376822         0.417351         2.564590
 H        -1.889363         0.238761         1.897207
 H        -2.417408         4.214578         2.373692
 H        -2.788019         1.173588         0.215079
 H        -1.846179         1.890847        -0.999533
