19
Iteration:  4674
 O        -0.222298         0.230743        -0.024613
 C        -0.667412         1.368111         0.628410
 C         0.182243         2.692581         0.517191
 C        -0.359333         3.532557         1.647807
 C        -0.937744         2.551649         2.671296
 C        -0.774311         1.185876         2.232846
 C        -1.787337         3.476472         1.759748
 O        -2.677719         2.909519         0.814858
 C        -2.061835         1.835683         0.025430
 H         0.714584         0.333335        -0.226222
 H         1.252266         2.439793         0.573359
 H         0.056656         3.243450        -0.389327
 H         0.241438         4.400261         2.024265
 H        -0.919447         2.654541         3.764920
 H         0.137802         0.792495         2.615569
 H        -1.601214         0.481178         2.711541
 H        -2.170418         4.408254         2.277877
 H        -2.757191         0.962025        -0.001140
 H        -1.928094         2.375017        -0.989158
