19
Iteration:  2848
 O        -0.295176         0.140387         0.063855
 C        -0.619553         1.422164         0.595565
 C         0.383879         2.773439         0.510501
 C        -0.271631         3.555929         1.703461
 C        -0.982821         2.588461         2.761395
 C        -0.913032         1.192453         2.052032
 C        -1.812617         3.421815         1.831032
 O        -2.710325         2.797256         0.864373
 C        -1.949502         1.957085        -0.011373
 H        -0.110073         0.152237        -0.898078
 H         1.337417         2.530241         0.915424
 H         0.367193         3.255550        -0.508682
 H         0.045075         4.562701         1.811807
 H        -1.127925         2.661859         3.834298
 H        -0.147046         0.500381         2.456521
 H        -1.891012         0.620824         2.057707
 H        -2.147614         4.346657         2.124531
 H        -2.631688         1.096502        -0.137175
 H        -1.858791         2.381164        -1.006912
