19
Iteration:  1027
 O        -0.129893         0.233030        -0.116871
 C        -0.695226         1.375948         0.621833
 C         0.258860         2.617431         0.762776
 C        -0.346646         3.489575         1.861730
 C        -1.131710         2.475866         2.762600
 C        -1.017753         1.056985         2.147934
 C        -1.859225         3.463962         1.828191
 O        -2.529155         3.115435         0.613783
 C        -1.878247         1.954708        -0.138819
 H         0.765591         0.028668         0.281827
 H         1.285850         2.272443         0.982876
 H         0.418320         3.029503        -0.272560
 H         0.282289         4.369274         2.181002
 H        -1.417045         2.817603         3.819996
 H        -0.269909         0.383962         2.529467
 H        -1.974449         0.383333         2.157979
 H        -2.345281         4.344680         2.319663
 H        -2.791243         1.273584        -0.108834
 H        -1.604293         2.366375        -1.205273
