19
Iteration:  4367charge 0 multiplicity 1
 O        -0.331195         0.210628        -0.094609
 C        -0.670068         1.369002         0.671142
 C         0.201811         2.752205         0.470440
 C        -0.341197         3.517157         1.624880
 C        -0.923362         2.661953         2.654462
 C        -0.628325         1.240772         2.183534
 C        -1.863072         3.411078         1.802900
 O        -2.651739         2.842690         0.853286
 C        -2.046483         1.808911         0.119593
 H         0.571607        -0.012560         0.264970
 H         1.298357         2.568852         0.497486
 H        -0.111036         3.233744        -0.413671
 H         0.130831         4.540926         1.782012
 H        -1.016464         2.991190         3.664716
 H         0.339778         0.882945         2.535278
 H        -1.383608         0.485039         2.636789
 H        -2.445585         4.278588         2.208320
 H        -2.744228         0.876851        -0.001230
 H        -1.906137         2.217015        -0.838860
