19
Iteration:  3143
 O        -0.059137         0.391964        -0.107284
 C        -0.740088         1.314855         0.679455
 C         0.130141         2.718529         0.584563
 C        -0.268827         3.517239         1.740941
 C        -1.073615         2.502111         2.668791
 C        -0.793001         1.072113         2.195853
 C        -1.828828         3.508522         1.773487
 O        -2.468965         3.061326         0.606727
 C        -2.137522         1.711964         0.239632
 H        -0.591503        -0.185592        -0.665008
 H         1.292945         2.486002         0.425760
 H        -0.206301         3.253757        -0.302077
 H         0.423381         4.220480         2.212892
 H        -1.144450         2.602491         3.726665
 H         0.193816         0.791282         2.534912
 H        -1.580843         0.342492         2.436882
 H        -2.504519         4.273021         2.225117
 H        -2.932388         0.992112         0.494904
 H        -2.180827         1.891684        -0.878723
