19
Iteration:   772
 O        -0.094463         0.305066        -0.156354
 C        -0.647665         1.412740         0.632920
 C         0.294316         2.498109         0.712386
 C        -0.310953         3.362557         1.910096
 C        -1.194564         2.563374         2.708807
 C        -1.143159         1.144543         2.109342
 C        -1.831853         3.468786         1.819386
 O        -2.515289         3.050612         0.694848
 C        -1.877678         1.990533        -0.109164
 H         0.683527        -0.136945         0.297429
 H         1.377046         2.290564         0.911003
 H         0.369452         3.027986        -0.238530
 H         0.087897         4.262918         2.236814
 H        -1.259153         2.480663         3.816435
 H        -0.376963         0.498911         2.653011
 H        -2.084189         0.600971         2.280388
 H        -2.438551         4.473538         1.989580
 H        -2.724407         1.266823        -0.112604
 H        -1.571479         2.315996        -1.062995
