19
Iteration:  2328
 O        -0.213005         0.277113        -0.081354
 C        -0.746182         1.343397         0.694739
 C         0.157540         2.618460         0.723976
 C        -0.292392         3.549348         1.834902
 C        -1.077791         2.495944         2.690043
 C        -0.877489         1.084866         2.254436
 C        -1.769158         3.484134         1.766973
 O        -2.483482         3.047501         0.598219
 C        -1.971257         1.900451        -0.091651
 H        -0.687000         0.259038        -0.925217
 H         1.134497         2.299544         1.163895
 H         0.318312         3.045736        -0.220120
 H         0.345643         4.281428         2.270038
 H        -1.292839         2.667491         3.691655
 H         0.052202         0.660008         2.656177
 H        -1.529007         0.283810         2.606218
 H        -2.329750         4.290420         2.162336
 H        -2.676629         1.124946        -0.278843
 H        -1.502062         2.233645        -1.080497
