19
Iteration:  2114charge 0 multiplicity 1
 O        -0.312428         0.277001        -0.059249
 C        -0.721468         1.444230         0.664760
 C         0.461875         2.538499         0.866941
 C        -0.276767         3.450318         1.851034
 C        -1.228465         2.448450         2.650839
 C        -0.889121         1.096862         2.093987
 C        -1.790595         3.442388         1.698909
 O        -2.572841         3.126646         0.576795
 C        -1.970582         1.994983        -0.086720
 H         0.226589        -0.208282         0.594676
 H         1.233271         2.011995         1.367157
 H         0.918550         3.008669        -0.054558
 H         0.196907         4.289577         2.404627
 H        -1.418327         2.689232         3.727431
 H         0.086341         0.783725         2.581549
 H        -1.500663         0.163441         2.143240
 H        -2.463967         4.216700         2.180461
 H        -2.808821         1.285354        -0.225736
 H        -1.565604         2.376450        -1.091207
