19
Iteration:  2511
 O        -0.112845         0.246588        -0.023117
 C        -0.703189         1.385520         0.622117
 C         0.129752         2.724197         0.553043
 C        -0.337360         3.490853         1.789738
 C        -1.079449         2.501207         2.731811
 C        -0.910459         1.165520         2.041300
 C        -1.813527         3.440491         1.868499
 O        -2.377882         3.146954         0.606736
 C        -2.091016         1.737087         0.074673
 H        -0.058970        -0.508604         0.617170
 H         1.205964         2.497600         0.547850
 H         0.048014         3.275799        -0.406008
 H         0.227697         4.271192         2.198688
 H        -1.077792         2.584361         3.779431
 H         0.029279         0.707914         2.344583
 H        -1.692710         0.420199         2.308743
 H        -2.337636         4.305921         2.328202
 H        -2.873892         1.033455         0.526789
 H        -2.179665         1.842151        -0.968696
