19
Iteration:  1918
 O        -0.209206         0.276204        -0.106859
 C        -0.654588         1.438145         0.659272
 C         0.371189         2.523582         0.838392
 C        -0.310636         3.413768         1.837649
 C        -1.130157         2.510329         2.711237
 C        -1.178164         1.133983         2.122601
 C        -1.788862         3.460031         1.714134
 O        -2.544199         2.985611         0.691161
 C        -1.879443         2.017642        -0.155795
 H         0.691184         0.173986         0.311364
 H         1.457039         2.242990         1.268537
 H         0.573695         3.067451        -0.102890
 H         0.319738         4.254071         2.228723
 H        -1.241501         2.601695         3.798315
 H        -0.447612         0.431786         2.554059
 H        -2.249110         0.777044         2.111196
 H        -2.235821         4.366432         2.053075
 H        -2.625078         1.313635        -0.461388
 H        -1.578002         2.664998        -1.046927
