19
Iteration:  4180charge 0 multiplicity 1
 O        -0.135777         0.264725        -0.095235
 C        -0.700981         1.349402         0.730495
 C         0.025318         2.728568         0.354644
 C        -0.357748         3.620495         1.537336
 C        -0.801307         2.690078         2.671070
 C        -0.758976         1.248593         2.304821
 C        -1.838085         3.366308         1.891318
 O        -2.568913         2.836687         0.813115
 C        -2.086047         1.691227         0.165092
 H        -0.458698         0.468910        -1.015456
 H         1.080896         2.453643         0.291739
 H        -0.323796         3.087527        -0.548365
 H         0.192503         4.562760         1.849194
 H        -0.603623         2.993904         3.701707
 H         0.162716         0.893419         2.682463
 H        -1.577161         0.639099         2.869843
 H        -2.397379         4.171055         2.250943
 H        -2.757732         0.887080         0.322993
 H        -2.056053         1.933064        -0.944872
