19
Iteration:  1357
 O        -0.091298         0.286724         0.003612
 C        -0.748909         1.410135         0.573513
 C         0.259347         2.628829         0.687407
 C        -0.241735         3.373911         1.894666
 C        -1.182152         2.486655         2.714018
 C        -0.998950         1.073156         2.063482
 C        -1.862224         3.390605         1.844781
 O        -2.414572         3.201275         0.562439
 C        -2.037870         1.937045        -0.107191
 H         0.533356        -0.013080         0.660603
 H         1.277360         2.194488         0.845601
 H         0.061119         3.280790        -0.203824
 H         0.174772         4.359817         2.409134
 H        -1.539042         2.494823         3.853709
 H        -0.095578         0.529211         2.376232
 H        -1.781895         0.210980         2.457035
 H        -2.250191         4.324561         2.324514
 H        -2.837405         1.240403         0.086497
 H        -1.925477         2.030963        -1.128747
