19
Iteration:  3785charge 0 multiplicity 1
 O        -0.208870         0.412263        -0.213471
 C        -0.699785         1.425506         0.711618
 C         0.120417         2.597381         0.429592
 C        -0.388040         3.543401         1.502093
 C        -0.942209         2.633655         2.667423
 C        -0.527797         1.249083         2.336684
 C        -1.817935         3.458083         1.791864
 O        -2.735850         2.809940         0.889542
 C        -2.139446         1.680394         0.150048
 H         0.515742        -0.063810         0.262154
 H         1.126251         2.369210         0.689417
 H        -0.088341         2.985448        -0.565934
 H         0.333293         4.344054         1.768721
 H        -0.885635         3.068892         3.634143
 H         0.665298         1.301200         2.392487
 H        -0.930618         0.400901         2.867702
 H        -2.195783         4.385609         2.323257
 H        -2.845520         0.775484         0.420527
 H        -2.088995         1.883147        -0.888653
