19
Iteration:  2854charge 0 multiplicity 1
 O        -0.252714         0.140483         0.126266
 C        -0.619784         1.460999         0.533520
 C         0.338366         2.741654         0.493352
 C        -0.313335         3.535880         1.738405
 C        -1.003158         2.531670         2.728660
 C        -0.877229         1.198759         2.040557
 C        -1.765859         3.426861         1.854547
 O        -2.730160         2.867504         0.848229
 C        -1.975539         1.963284        -0.008619
 H        -0.139091         0.115429        -0.854598
 H         1.430847         2.370673         0.773392
 H         0.422469         3.179128        -0.482860
 H         0.095423         4.583780         1.828271
 H        -1.077222         2.728230         3.819026
 H        -0.099023         0.496696         2.384814
 H        -1.730602         0.548074         2.129757
 H        -2.374838         4.373367         2.307048
 H        -2.678662         1.096335        -0.100046
 H        -1.762095         2.122290        -1.148706
