19
Iteration:  3576
 O        -0.132314         0.315534         0.026967
 C        -0.704709         1.488467         0.587696
 C         0.184154         2.785507         0.417851
 C        -0.301417         3.500109         1.672520
 C        -1.011709         2.595183         2.657848
 C        -0.741379         1.251456         2.094231
 C        -1.808064         3.490933         1.831357
 O        -2.571355         2.858901         0.790501
 C        -2.168472         1.594595         0.228526
 H        -0.436907         0.193424        -0.873831
 H         1.207019         2.406080         0.456986
 H        -0.139117         3.332146        -0.476010
 H         0.264340         4.371662         2.029719
 H        -0.755827         2.826054         3.727002
 H         0.300283         0.767668         2.333259
 H        -1.414139         0.364559         2.332070
 H        -2.322902         4.300608         2.426235
 H        -2.495484         0.618459         0.720828
 H        -2.559413         1.612718        -0.833705
