19
Iteration:  3928charge 0 multiplicity 1
 O        -0.208846         0.270367        -0.062777
 C        -0.671971         1.413386         0.610928
 C         0.132551         2.757804         0.400722
 C        -0.311179         3.602225         1.565203
 C        -0.867453         2.685456         2.683671
 C        -0.678314         1.277443         2.151483
 C        -1.781683         3.425652         1.867168
 O        -2.737171         2.726969         0.913213
 C        -2.082543         1.745891         0.119259
 H        -0.266268        -0.531162         0.466904
 H         1.259720         2.633360         0.380478
 H        -0.077719         3.164500        -0.609083
 H         0.110416         4.582014         1.785491
 H        -0.795807         2.773176         3.778499
 H         0.396493         0.990182         2.320783
 H        -1.472546         0.644936         2.507390
 H        -2.474033         4.169151         2.490200
 H        -2.599983         0.759912         0.229035
 H        -2.053183         2.016094        -0.939001
