19
Iteration:  1167charge 0 multiplicity 1
 O        -0.185933         0.298469        -0.191151
 C        -0.641119         1.383964         0.676382
 C         0.331739         2.596094         0.800944
 C        -0.331380         3.528099         1.780766
 C        -1.170040         2.487630         2.707037
 C        -1.024298         1.040978         2.209025
 C        -1.844200         3.453921         1.805661
 O        -2.554143         3.072616         0.619335
 C        -1.896258         1.958931        -0.083136
 H         0.574619        -0.071843         0.322223
 H         1.384607         2.306923         1.000732
 H         0.361165         2.833440        -0.289217
 H         0.186407         4.368924         2.379756
 H        -1.308644         2.527337         3.834990
 H        -0.111858         0.506211         2.634854
 H        -1.848647         0.309767         2.343191
 H        -2.426690         4.358333         2.194314
 H        -2.654446         1.227699        -0.217423
 H        -1.645228         2.363170        -1.027283
