19
Iteration:  4102
 O        -0.194081         0.293771        -0.140038
 C        -0.668670         1.351297         0.764219
 C         0.131984         2.677301         0.444705
 C        -0.375815         3.599467         1.511044
 C        -0.854398         2.714832         2.622098
 C        -0.672056         1.223973         2.246587
 C        -1.829096         3.460477         1.786591
 O        -2.676801         2.802086         0.882022
 C        -2.090533         1.663816         0.240260
 H        -0.082962         0.752548        -1.006224
 H         1.227078         2.496090         0.424173
 H        -0.126659         3.066746        -0.497732
 H         0.216902         4.430363         1.733843
 H        -0.891625         3.131322         3.641833
 H         0.266925         0.792530         2.550348
 H        -1.528803         0.675762         2.842883
 H        -2.391706         4.145871         2.432499
 H        -2.734333         0.788717         0.284485
 H        -1.952676         1.940483        -0.860552
