19
Iteration:  1069
 O        -0.248614         0.294969        -0.216102
 C        -0.636926         1.486511         0.665362
 C         0.364538         2.592290         0.829719
 C        -0.316410         3.497564         1.911748
 C        -1.208069         2.505255         2.757447
 C        -0.948770         1.052395         2.153823
 C        -1.745870         3.428871         1.682673
 O        -2.583146         3.028260         0.562289
 C        -1.949900         1.940017        -0.038664
 H         0.538991        -0.018728         0.247396
 H         1.338957         2.261875         1.181670
 H         0.662304         3.224898        -0.029005
 H         0.212182         4.390844         2.437296
 H        -1.549765         2.589049         3.843673
 H        -0.221266         0.380234         2.624359
 H        -1.914036         0.558008         2.352930
 H        -2.329362         4.270504         2.015834
 H        -2.562814         1.012768         0.155444
 H        -1.807124         2.185161        -1.131544
