19
Iteration:  1942
 O        -0.016414         0.285670        -0.104744
 C        -0.652968         1.345463         0.659655
 C         0.358055         2.432308         0.756894
 C        -0.274879         3.456767         1.692739
 C        -1.217748         2.520204         2.684562
 C        -1.209547         1.104430         2.033031
 C        -1.810017         3.579887         1.886596
 O        -2.636756         3.041670         0.747452
 C        -1.869102         2.037113        -0.096928
 H         0.568972         0.100480         0.656422
 H         1.324532         2.079271         1.463012
 H         0.788039         2.636630        -0.254552
 H         0.475631         4.003880         2.324371
 H        -1.161590         2.487815         3.802521
 H        -0.584693         0.410713         2.587868
 H        -2.334306         0.824817         1.800260
 H        -2.419999         4.583320         2.092475
 H        -2.690095         1.361625        -0.334987
 H        -1.635363         2.619335        -1.028424
