19
Iteration:   569
 O        -0.173585         0.284201        -0.036028
 C        -0.649975         1.455154         0.608302
 C         0.389397         2.545135         0.752858
 C        -0.301737         3.354439         1.794157
 C        -1.205504         2.423570         2.705729
 C        -1.085223         1.108667         2.043693
 C        -1.793186         3.567758         1.751754
 O        -2.644151         3.055453         0.715577
 C        -1.873054         1.974439        -0.104814
 H         0.748828         0.111250         0.337390
 H         1.280849         2.002159         1.154475
 H         0.898443         3.122770        -0.065011
 H         0.263333         4.297055         2.462415
 H        -1.131428         2.670493         3.790010
 H        -0.406719         0.452344         2.701158
 H        -2.085279         0.549409         2.015941
 H        -2.230364         4.505405         2.249311
 H        -2.578080         1.211427        -0.349163
 H        -1.686151         2.550276        -0.999355
