19
Iteration:  2107
 O        -0.301070         0.273734        -0.030542
 C        -0.716748         1.450249         0.660743
 C         0.379915         2.519655         0.807897
 C        -0.327453         3.495009         1.786873
 C        -1.264164         2.437673         2.655024
 C        -0.909186         1.045098         2.148237
 C        -1.766040         3.439448         1.746210
 O        -2.488287         3.131191         0.586294
 C        -1.956089         2.047640        -0.083217
 H         0.398338        -0.100695         0.513081
 H         1.303668         2.071577         1.312957
 H         0.793523         3.121196         0.034663
 H         0.191266         4.245104         2.260473
 H        -1.624093         2.405429         3.633212
 H         0.112322         0.818731         2.397578
 H        -1.590700         0.154748         2.169043
 H        -2.218374         4.222045         2.261673
 H        -2.663692         1.228571        -0.201500
 H        -1.596897         2.202991        -1.145701
