19
Iteration:  1824charge 0 multiplicity 1
 O        -0.112126         0.364627        -0.172722
 C        -0.717842         1.412393         0.611301
 C         0.295320         2.693167         0.734405
 C        -0.252861         3.359537         1.943225
 C        -1.257757         2.505400         2.787047
 C        -1.222484         1.080928         2.122527
 C        -1.758298         3.524496         1.747747
 O        -2.303042         3.090823         0.586396
 C        -2.019592         1.779170        -0.046357
 H         0.386232        -0.158653         0.456416
 H         1.319831         2.241392         0.786384
 H         0.372268         3.212942        -0.271728
 H         0.466525         4.109250         2.378636
 H        -1.317758         2.503914         3.903754
 H        -0.482807         0.587617         2.735328
 H        -2.168061         0.537926         2.021027
 H        -2.133365         4.576756         2.196725
 H        -2.777442         0.947218         0.267567
 H        -2.046088         1.958825        -1.105981
