19
Iteration:  3830
 O        -0.145878         0.247534        -0.022199
 C        -0.698201         1.416703         0.513468
 C         0.135824         2.882823         0.282653
 C        -0.407979         3.647645         1.563079
 C        -0.821973         2.623356         2.683765
 C        -0.690778         1.264586         2.133641
 C        -1.881597         3.377138         1.913181
 O        -2.570188         2.820970         0.853179
 C        -2.121964         1.657349         0.266728
 H        -0.474659        -0.567273         0.399778
 H         1.112494         2.746972         0.534588
 H        -0.110885         3.307596        -0.700429
 H         0.191897         4.515322         1.947725
 H        -0.558313         2.735210         3.724333
 H         0.226818         0.645658         2.572464
 H        -1.574895         0.717005         2.353672
 H        -2.720989         4.075760         2.420577
 H        -2.695997         0.681369         0.740066
 H        -2.324514         1.670750        -0.773754
