19
Iteration:  3650
 O        -0.333417         0.283314        -0.157789
 C        -0.632604         1.409766         0.593728
 C         0.322755         2.798009         0.489137
 C        -0.314520         3.658630         1.726048
 C        -0.948389         2.652559         2.647499
 C        -0.671318         1.211613         2.167792
 C        -1.827781         3.443110         1.694869
 O        -2.712224         2.788920         0.887775
 C        -2.167290         1.627360         0.207424
 H         0.584824        -0.059186        -0.027324
 H         1.435103         2.584863         0.671637
 H         0.296091         3.376021        -0.453435
 H         0.327825         4.463697         2.095682
 H        -0.893218         2.840742         3.719472
 H         0.405891         0.974791         2.427569
 H        -1.541213         0.470203         2.357069
 H        -2.375896         4.335185         2.176462
 H        -2.615911         0.655675         0.676522
 H        -2.270565         1.644035        -0.847023
