19
Iteration:  2186charge 0 multiplicity 1
 O         0.030249         0.242779         0.070805
 C        -0.694731         1.436588         0.571551
 C         0.350325         2.504285         0.689557
 C        -0.245910         3.351070         1.833914
 C        -1.117504         2.529450         2.772294
 C        -1.112837         1.190530         2.093775
 C        -1.748906         3.445531         1.776210
 O        -2.649867         3.080464         0.679226
 C        -2.032698         2.011862        -0.167119
 H        -0.613756        -0.330933        -0.357012
 H         1.340054         2.080562         1.084851
 H         0.534445         3.187335        -0.143802
 H         0.228320         4.377032         2.165099
 H        -1.128062         2.614702         3.909023
 H        -0.522778         0.303895         2.287057
 H        -2.111559         0.777815         2.232471
 H        -2.200274         4.394587         2.205560
 H        -2.801551         1.218784        -0.352203
 H        -1.807414         2.630836        -1.073161
