19
Iteration:  1994
 O        -0.462213         0.250428        -0.089662
 C        -0.619204         1.423458         0.675111
 C         0.366807         2.637086         0.798025
 C        -0.349982         3.409593         1.897373
 C        -1.225185         2.487916         2.712861
 C        -0.981972         1.113691         2.115545
 C        -1.839741         3.459767         1.770097
 O        -2.427796         3.016667         0.571773
 C        -1.758012         1.984747        -0.124905
 H         0.474734         0.008282        -0.047111
 H         1.421156         2.383095         1.211522
 H         0.638449         3.248394        -0.062172
 H         0.074099         4.323120         2.420542
 H        -1.229907         2.702008         3.814181
 H        -0.075677         0.741643         2.616895
 H        -1.834559         0.393290         2.163346
 H        -2.485721         4.235845         2.242044
 H        -2.529924         1.233884        -0.209973
 H        -1.566526         2.316941        -1.202693
