19
Iteration:  4488charge 0 multiplicity 1
 O        -0.224280         0.204748         0.067982
 C        -0.689585         1.461670         0.607313
 C         0.259481         2.685264         0.547387
 C        -0.368572         3.575761         1.642530
 C        -0.961747         2.552885         2.664087
 C        -0.673090         1.209102         2.136415
 C        -1.807571         3.380272         1.836039
 O        -2.641953         2.999017         0.686876
 C        -2.186908         1.788447         0.124096
 H         0.284134         0.353135        -0.747420
 H         1.314026         2.249749         0.920628
 H         0.338804         3.131192        -0.434389
 H         0.084463         4.475221         1.871770
 H        -0.746448         2.635185         3.761411
 H         0.329963         0.776314         2.222660
 H        -1.468027         0.409954         2.407881
 H        -2.291459         4.091998         2.424587
 H        -2.873022         0.937840         0.507436
 H        -2.217017         1.896968        -0.906535
