19
Iteration:  4698charge 0 multiplicity 1
 O        -0.424357         0.221791        -0.076337
 C        -0.666884         1.461840         0.627745
 C         0.189709         2.765145         0.539745
 C        -0.342004         3.648126         1.657597
 C        -0.899145         2.687089         2.811222
 C        -0.772943         1.214971         2.113930
 C        -1.850953         3.315656         1.906856
 O        -2.508174         2.860459         0.665776
 C        -2.009641         1.709800         0.091828
 H         0.525578         0.050463        -0.068660
 H         1.276418         2.382513         0.681923
 H         0.189490         3.295807        -0.422007
 H         0.301314         4.452884         2.075721
 H        -0.899870         2.868602         3.822623
 H         0.044248         0.556283         2.380159
 H        -1.688690         0.615675         2.398863
 H        -2.419643         4.097499         2.326030
 H        -2.643691         0.725317         0.142075
 H        -1.784543         2.063207        -0.959609
