19
Iteration:  2867
 O        -0.166868         0.188881         0.158238
 C        -0.687901         1.481062         0.569851
 C         0.260769         2.652507         0.549159
 C        -0.312931         3.498634         1.683747
 C        -0.992448         2.505811         2.651708
 C        -0.809852         1.166675         2.050782
 C        -1.862356         3.451838         1.846973
 O        -2.643655         2.994193         0.800150
 C        -2.050229         1.893445        -0.037041
 H        -0.147210         0.065720        -0.800895
 H         1.357881         2.306541         0.776895
 H         0.177034         3.220876        -0.321601
 H         0.269466         4.241055         2.191123
 H        -0.832618         2.574904         3.739488
 H         0.172218         0.767449         2.396887
 H        -1.643323         0.483105         2.216503
 H        -2.385728         4.234646         2.511992
 H        -2.725765         0.971739        -0.020205
 H        -2.049613         2.460832        -1.001001
