19
Iteration:   122charge 0 multiplicity 1
 O        -0.270079         0.308378        -0.199858
 C        -0.653639         1.413025         0.652575
 C         0.355362         2.556963         0.881392
 C        -0.302175         3.436619         1.934758
 C        -1.149359         2.529253         2.713584
 C        -1.055721         1.072193         2.149985
 C        -1.770357         3.539513         1.658365
 O        -2.550452         2.998750         0.602448
 C        -1.888668         1.949327        -0.051868
 H         0.524844         0.019375         0.247075
 H         1.442181         2.276231         0.974311
 H         0.428124         3.132243        -0.062280
 H         0.317878         4.143923         2.359877
 H        -1.407803         2.640085         3.813007
 H        -0.264639         0.433902         2.553139
 H        -1.990994         0.558311         2.194681
 H        -2.249519         4.497565         2.061539
 H        -2.567305         1.160422        -0.009346
 H        -1.767071         2.319736        -1.051419
