19
Iteration:   874charge 0 multiplicity 1
 O        -0.229636         0.378916        -0.116013
 C        -0.623776         1.508183         0.590618
 C         0.378868         2.614219         0.770189
 C        -0.326635         3.367082         1.823543
 C        -1.167516         2.508594         2.772962
 C        -1.115868         1.074674         2.207516
 C        -1.823787         3.499269         1.814674
 O        -2.465159         2.962929         0.600421
 C        -1.893268         1.914319        -0.143629
 H         0.580715         0.003869         0.194119
 H         1.326280         2.202992         1.164136
 H         0.336650         3.200966        -0.200008
 H         0.132120         4.295011         2.308183
 H        -1.159287         2.456257         3.859149
 H        -0.478549         0.386520         2.762909
 H        -2.229527         0.717614         2.069774
 H        -2.360444         4.317849         2.121884
 H        -2.567376         1.084292        -0.084452
 H        -1.830655         2.091103        -1.187478
