19
Iteration:  1340charge 0 multiplicity 1
 O        -0.130403         0.285555        -0.133423
 C        -0.685148         1.390988         0.670951
 C         0.214425         2.571616         0.708242
 C        -0.357710         3.393422         1.876530
 C        -1.183435         2.435756         2.785443
 C        -0.959313         1.073182         2.191158
 C        -1.824233         3.463006         1.782112
 O        -2.428392         3.177934         0.530804
 C        -2.010691         1.957454        -0.090935
 H         0.570821         0.030074         0.453388
 H         1.272803         2.295374         0.933384
 H         0.242649         3.150996        -0.204398
 H         0.269358         4.183261         2.303269
 H        -1.105715         2.648739         3.791644
 H        -0.054335         0.672032         2.742656
 H        -1.826801         0.512234         2.385559
 H        -2.451652         4.210839         2.217542
 H        -2.801896         1.143667        -0.138461
 H        -1.734260         2.372498        -1.139119
