19
Iteration:  4204
 O        -0.062893         0.375060        -0.066810
 C        -0.696265         1.369908         0.654234
 C         0.123240         2.662156         0.485013
 C        -0.382807         3.582600         1.539713
 C        -0.819267         2.662701         2.701969
 C        -0.661770         1.186400         2.163145
 C        -1.807081         3.476333         1.734969
 O        -2.702909         2.916048         0.843357
 C        -2.206091         1.599791         0.249356
 H        -0.667243        -0.068331        -0.677784
 H         1.168547         2.388610         0.735224
 H         0.056782         3.080502        -0.518101
 H         0.419679         4.386056         1.824867
 H        -0.859559         2.990951         3.747238
 H         0.268763         0.703164         2.445680
 H        -1.446970         0.471621         2.432573
 H        -2.283099         4.390071         2.260538
 H        -2.805127         0.829306         0.648417
 H        -2.427798         1.751824        -0.863774
