19
Iteration:  3813
 O        -0.185159         0.231377        -0.122314
 C        -0.590550         1.471099         0.624065
 C         0.108711         2.787510         0.432038
 C        -0.408780         3.651028         1.585084
 C        -0.828657         2.625068         2.663645
 C        -0.645028         1.218619         2.108409
 C        -1.828161         3.448964         1.864111
 O        -2.698843         2.843134         0.841510
 C        -2.132924         1.587399         0.253888
 H        -0.126285        -0.357753         0.645034
 H         1.264330         2.719957         0.421373
 H        -0.135329         3.312623        -0.533257
 H         0.012683         4.628972         1.718573
 H        -0.741057         2.967874         3.718276
 H         0.306436         0.875443         2.377568
 H        -1.492935         0.524366         2.390642
 H        -2.191205         4.289645         2.364983
 H        -2.670028         0.784916         0.668471
 H        -2.411753         1.639221        -0.860290
