19
Iteration:  2543charge 0 multiplicity 1
 O        -0.169912         0.277035        -0.057263
 C        -0.645962         1.423507         0.678607
 C         0.339308         2.651518         0.654844
 C        -0.288940         3.464827         1.763362
 C        -1.045667         2.552361         2.668537
 C        -0.807905         1.164529         2.114444
 C        -1.857046         3.439726         1.735454
 O        -2.668794         3.074852         0.648051
 C        -2.041767         1.791714         0.085754
 H        -0.917440        -0.319593        -0.162991
 H         1.314959         2.338803         0.985410
 H         0.266676         3.233024        -0.301229
 H         0.217251         4.285838         2.196330
 H        -1.116410         2.745506         3.705579
 H         0.158603         0.794293         2.401798
 H        -1.560592         0.397399         2.343172
 H        -2.228238         4.304165         2.316012
 H        -2.662251         0.940743         0.422968
 H        -2.107514         1.854955        -0.980303
