19
Iteration:  2345charge 0 multiplicity 1
 O        -0.232734         0.255496        -0.104720
 C        -0.653765         1.413219         0.663401
 C         0.399117         2.508367         0.759023
 C        -0.311009         3.413760         1.758339
 C        -1.134648         2.570986         2.775776
 C        -0.891901         1.168145         2.169534
 C        -1.863031         3.453360         1.739503
 O        -2.589072         3.042695         0.645523
 C        -1.988994         1.935730        -0.014113
 H         0.018358         0.549319        -0.999863
 H         1.378960         2.038821         0.918689
 H         0.558276         3.102322        -0.225848
 H         0.141770         4.433564         2.092137
 H        -1.228366         2.804521         3.901240
 H        -0.029875         0.671844         2.671041
 H        -1.800329         0.507040         2.410810
 H        -2.320262         4.365270         2.239817
 H        -2.718946         0.995310        -0.051486
 H        -1.755869         2.252754        -1.029259
