19
Iteration:  4604charge 0 multiplicity 1
 O        -0.394345         0.263834        -0.075211
 C        -0.621620         1.422777         0.668633
 C         0.201369         2.672355         0.539077
 C        -0.326416         3.515876         1.663944
 C        -0.953158         2.628810         2.715109
 C        -0.814079         1.240557         2.188714
 C        -1.834506         3.457407         1.832390
 O        -2.627800         2.806439         0.818407
 C        -1.888977         1.800162        -0.005426
 H         0.513594         0.082709        -0.336086
 H         1.219336         2.600373         0.605499
 H        -0.026612         3.147795        -0.436406
 H         0.188578         4.436382         1.918815
 H        -1.035649         2.857780         3.789189
 H         0.179332         0.767219         2.569538
 H        -1.641587         0.588417         2.551560
 H        -2.224715         4.408992         2.026311
 H        -2.541594         0.970883         0.034274
 H        -1.671681         2.208572        -1.040715
