19
Iteration:  2831
 O        -0.318388         0.214808        -0.068549
 C        -0.625927         1.451654         0.621513
 C         0.356393         2.628592         0.662738
 C        -0.354564         3.544035         1.647258
 C        -0.947943         2.636145         2.628406
 C        -0.963191         1.240536         2.182666
 C        -1.819303         3.492998         1.764048
 O        -2.644398         2.683966         0.945979
 C        -1.918829         1.935351        -0.023941
 H        -0.070272         0.492646        -0.970645
 H         1.448005         2.382062         0.778767
 H         0.295081         3.082732        -0.351225
 H         0.256598         4.383218         2.071939
 H        -0.682740         2.938383         3.638674
 H        -0.249880         0.596118         2.678658
 H        -1.910570         0.750359         2.377014
 H        -2.521235         4.266509         2.179323
 H        -2.536133         1.129136        -0.414651
 H        -1.583360         2.489874        -1.009637
