19
Iteration:  3070charge 0 multiplicity 1
 O        -0.393382         0.207816        -0.116556
 C        -0.646864         1.419683         0.649435
 C         0.381464         2.642432         0.600924
 C        -0.360352         3.508876         1.711555
 C        -1.024206         2.617115         2.727406
 C        -0.757689         1.236547         2.176357
 C        -1.877564         3.408278         1.869437
 O        -2.656804         2.832515         0.791861
 C        -1.901833         1.911236        -0.025580
 H         0.458792         0.321711        -0.549608
 H         1.377123         2.509875         0.755052
 H         0.270610         3.089568        -0.439728
 H         0.073019         4.410983         2.020442
 H        -1.125011         2.931948         3.728570
 H         0.174422         0.774743         2.570996
 H        -1.651553         0.570817         2.391689
 H        -2.443370         4.296742         2.166305
 H        -2.676269         1.142872        -0.226164
 H        -1.653541         2.420981        -0.934019
