19
Iteration:  1504charge 0 multiplicity 1
 O        -0.117340         0.329004        -0.105255
 C        -0.696498         1.398601         0.628433
 C         0.420603         2.537158         0.781652
 C        -0.290752         3.410941         1.828115
 C        -1.165095         2.475557         2.785639
 C        -1.140838         1.151657         2.098608
 C        -1.831256         3.463863         1.735138
 O        -2.565560         3.010583         0.660353
 C        -1.961567         2.018201        -0.114223
 H         0.637844         0.054241         0.489826
 H         1.342231         2.019651         1.142766
 H         0.561850         2.969706        -0.216108
 H         0.080369         4.325232         2.177996
 H        -1.019307         2.669294         3.849658
 H        -0.323499         0.505166         2.637582
 H        -2.123106         0.588235         2.108195
 H        -2.198812         4.488715         2.154903
 H        -2.554268         1.121327        -0.288711
 H        -1.728979         2.412582        -1.067584
