19
Iteration:  3006
 O        -0.154751         0.228052         0.009576
 C        -0.648265         1.441823         0.539136
 C         0.343177         2.716653         0.550874
 C        -0.240888         3.493346         1.706725
 C        -0.965688         2.636789         2.742482
 C        -1.032806         1.198741         2.115700
 C        -1.763599         3.510792         1.859675
 O        -2.679930         2.768496         0.891293
 C        -2.063649         1.838754        -0.066703
 H        -0.099186         0.291238        -0.976736
 H         1.392133         2.450663         0.817720
 H         0.266953         3.266071        -0.472470
 H         0.270253         4.296856         2.156273
 H        -0.914499         2.760914         3.808221
 H        -0.496153         0.367776         2.623305
 H        -2.092816         0.965444         2.017001
 H        -2.206815         4.477812         2.246972
 H        -2.635729         0.864892        -0.137188
 H        -1.900133         2.318566        -1.062265
