19
Iteration:  4338
 O        -0.178008         0.375932        -0.150256
 C        -0.730675         1.360866         0.707004
 C         0.220892         2.655504         0.517573
 C        -0.388081         3.586644         1.547171
 C        -0.815473         2.679635         2.698976
 C        -0.701346         1.226774         2.202806
 C        -1.856509         3.447006         1.850065
 O        -2.662695         2.832465         0.833813
 C        -2.102130         1.688465         0.117531
 H        -0.695610        -0.421200         0.117443
 H         1.227492         2.343545         0.746346
 H         0.124491         2.982687        -0.546631
 H         0.053043         4.471891         1.818493
 H        -0.672195         2.996037         3.731326
 H         0.247475         0.730506         2.534168
 H        -1.477748         0.653214         2.594360
 H        -2.327788         4.332666         2.113298
 H        -2.737500         0.852520         0.054876
 H        -2.042949         2.043533        -0.995980
