19
Iteration:  3979
 O        -0.121925         0.322078        -0.134972
 C        -0.659552         1.444218         0.567409
 C         0.195762         2.651585         0.470508
 C        -0.366149         3.636504         1.501024
 C        -0.849286         2.697895         2.637479
 C        -0.691463         1.239267         2.143741
 C        -1.858903         3.413024         1.830266
 O        -2.745256         2.809799         0.976775
 C        -2.125156         1.662818         0.250780
 H        -0.108487        -0.455216         0.465431
 H         1.219434         2.228420         0.579362
 H         0.343557         3.061337        -0.509619
 H         0.133248         4.616103         1.803454
 H        -0.793400         2.839282         3.692444
 H         0.146826         0.657852         2.420846
 H        -1.771727         0.882302         2.331930
 H        -2.351808         4.370603         2.146067
 H        -2.706264         0.799355         0.446373
 H        -2.213702         2.003461        -0.861607
