19
Iteration:  2192charge 0 multiplicity 1
 O        -0.032820         0.226180         0.107799
 C        -0.723339         1.420271         0.550434
 C         0.437045         2.531472         0.711457
 C        -0.244303         3.420709         1.803933
 C        -1.164087         2.488310         2.727684
 C        -1.037277         1.186737         2.077811
 C        -1.788864         3.435612         1.826123
 O        -2.601003         3.074377         0.692557
 C        -2.052411         2.019320        -0.157017
 H        -0.634787        -0.286216        -0.484828
 H         1.353372         2.136908         1.078146
 H         0.615128         3.278139        -0.083791
 H         0.157163         4.274929         2.174663
 H        -1.316140         2.482763         3.767939
 H        -0.322218         0.384429         2.438512
 H        -2.108813         0.771529         2.082557
 H        -2.179433         4.382991         2.028431
 H        -2.850903         1.298918        -0.305974
 H        -1.916326         2.495754        -1.181988
