19
Iteration:  4281charge 0 multiplicity 1
 O        -0.204293         0.237519        -0.038618
 C        -0.746747         1.443524         0.644850
 C         0.042192         2.661977         0.429156
 C        -0.342961         3.592248         1.616550
 C        -0.820172         2.629322         2.685079
 C        -0.661546         1.250612         2.202358
 C        -1.814157         3.408932         1.831221
 O        -2.655235         2.855694         0.795170
 C        -2.083026         1.729835         0.143739
 H         0.638765         0.534293        -0.400878
 H         1.104312         2.436255         0.478281
 H        -0.123359         3.022400        -0.576582
 H         0.311690         4.514071         1.903344
 H        -0.895713         2.938247         3.719075
 H         0.253989         0.755574         2.514510
 H        -1.580456         0.688609         2.505181
 H        -2.265412         4.301866         2.419710
 H        -2.595544         0.854667         0.482754
 H        -2.218022         1.915136        -0.985718
