19
Iteration:  4779
 O        -0.146277         0.278270        -0.057701
 C        -0.664970         1.422454         0.689058
 C         0.080114         2.755375         0.477106
 C        -0.338888         3.555475         1.728640
 C        -0.867871         2.585782         2.652436
 C        -0.808548         1.198935         2.133164
 C        -1.808262         3.471296         1.852986
 O        -2.558299         2.970985         0.652021
 C        -2.045707         1.625336         0.197897
 H        -0.881143        -0.104040        -0.550886
 H         1.165520         2.450987         0.662990
 H        -0.055664         3.203536        -0.589539
 H         0.179063         4.494296         1.928229
 H        -0.854162         2.643894         3.833119
 H         0.012882         0.572322         2.587206
 H        -1.731120         0.878007         2.375241
 H        -2.430414         4.181126         2.511284
 H        -2.749704         0.803338         0.618133
 H        -2.154400         1.573753        -0.865963
