19
Iteration:  3456
 O        -0.136120         0.312455        -0.156158
 C        -0.726613         1.426221         0.672268
 C         0.164722         2.634058         0.500033
 C        -0.364697         3.560513         1.569073
 C        -0.877738         2.655623         2.674008
 C        -0.773000         1.190175         2.198326
 C        -1.810375         3.457897         1.852471
 O        -2.744860         2.810091         0.939360
 C        -2.048877         1.809752         0.062741
 H         0.689700        -0.124792         0.169189
 H         1.231615         2.403591         0.839880
 H         0.006328         2.885413        -0.592099
 H        -0.002082         4.539354         1.638051
 H        -0.757312         2.919942         3.699382
 H        -0.002284         0.573242         2.546247
 H        -1.620690         0.669524         2.498569
 H        -2.217667         4.422748         2.220287
 H        -2.525984         0.900134        -0.152202
 H        -1.709814         2.094355        -0.944252
