19
Iteration:  3050charge 0 multiplicity 1
 O        -0.269601         0.227865        -0.121082
 C        -0.629193         1.397311         0.659148
 C         0.328601         2.527728         0.654748
 C        -0.348879         3.553435         1.571190
 C        -0.993678         2.612902         2.692536
 C        -0.817534         1.137293         2.263673
 C        -1.849665         3.470868         1.779336
 O        -2.796281         2.782003         0.862148
 C        -1.933440         2.070033        -0.010109
 H         0.363117         0.511653        -0.825581
 H         1.258079         2.192053         1.148622
 H         0.583754         3.071559        -0.322148
 H         0.233333         4.392711         1.696616
 H        -0.740138         2.783354         3.719862
 H         0.190571         0.817038         2.645093
 H        -1.629417         0.510463         2.639403
 H        -2.404818         4.298359         2.185512
 H        -2.609250         1.325500        -0.496401
 H        -1.515701         2.748391        -0.771459
