19
Iteration:   229
 O        -0.120455         0.289352        -0.095056
 C        -0.698595         1.353774         0.612412
 C         0.336877         2.591509         0.784979
 C        -0.301165         3.438915         1.905765
 C        -1.117130         2.437660         2.625405
 C        -1.014854         1.025007         2.149868
 C        -1.853937         3.566491         1.776284
 O        -2.506134         3.166039         0.531953
 C        -2.036608         1.979208        -0.033279
 H         0.661243         0.032885         0.368423
 H         1.165838         2.144343         1.311989
 H         0.485741         2.964970        -0.125909
 H         0.387839         4.009058         2.439915
 H        -1.371695         2.539887         3.744478
 H        -0.153830         0.419045         2.609719
 H        -1.848776         0.417480         2.242768
 H        -2.425115         4.342620         2.425343
 H        -2.831724         1.138726         0.121827
 H        -2.050623         2.062563        -1.204115
