19
Iteration:  1710
 O        -0.068229         0.305101        -0.101282
 C        -0.719430         1.443967         0.594983
 C         0.323289         2.494993         0.745872
 C        -0.262354         3.386133         1.862656
 C        -1.088586         2.521158         2.803075
 C        -1.287710         1.176859         2.088802
 C        -1.745260         3.517294         1.802385
 O        -2.560178         2.944995         0.715724
 C        -1.893342         1.986557        -0.225885
 H         0.583507         0.086171         0.561980
 H         1.242357         2.109065         1.063917
 H         0.536832         3.031126        -0.172971
 H         0.412927         4.127049         2.314710
 H        -1.027026         2.816739         3.887087
 H        -0.690847         0.400060         2.560542
 H        -2.414896         0.942039         2.085419
 H        -2.411356         4.348343         2.189461
 H        -2.690872         1.259707        -0.488064
 H        -1.636082         2.608512        -1.103877
