19
Iteration:  1927charge 0 multiplicity 1
 O        -0.121090         0.298907        -0.080139
 C        -0.675049         1.408139         0.623292
 C         0.381716         2.469286         0.785720
 C        -0.286817         3.422162         1.807511
 C        -1.146304         2.522784         2.693058
 C        -1.236210         1.125607         2.056414
 C        -1.835070         3.534558         1.801515
 O        -2.586442         3.003413         0.701964
 C        -1.856508         2.036300        -0.097533
 H         0.753450        -0.020580         0.275025
 H         1.331035         1.883768         1.226986
 H         0.648675         2.955202        -0.165567
 H         0.198469         4.374285         2.077819
 H        -1.110871         2.670778         3.760699
 H        -0.559250         0.437128         2.623549
 H        -2.201996         0.660035         2.113272
 H        -2.194063         4.315518         2.342981
 H        -2.531773         1.242177        -0.401269
 H        -1.401361         2.478346        -1.049686
