19
Iteration:  2021charge 0 multiplicity 1
 O        -0.217463         0.174935        -0.129618
 C        -0.614738         1.343879         0.711560
 C         0.302078         2.510444         0.848275
 C        -0.323721         3.463813         1.849033
 C        -1.220898         2.456756         2.676855
 C        -0.936030         1.043134         2.151926
 C        -1.830230         3.528553         1.770347
 O        -2.533253         3.274829         0.520473
 C        -1.947979         1.980047        -0.073073
 H         0.746739         0.157272        -0.225029
 H         1.373329         2.156401         1.196261
 H         0.562869         3.088997        -0.069910
 H         0.136770         4.246288         2.364660
 H        -1.359798         2.683390         3.701414
 H        -0.071515         0.655470         2.727812
 H        -1.772015         0.326763         2.268138
 H        -2.370000         4.127842         2.474879
 H        -2.852853         1.294903        -0.019314
 H        -1.761469         2.209278        -1.105988
