19
Iteration:    53
 O        -0.210020         0.254809        -0.109586
 C        -0.695899         1.456331         0.601005
 C         0.449601         2.506647         0.808777
 C        -0.238099         3.430223         1.856874
 C        -1.304355         2.513793         2.725111
 C        -1.059404         1.104909         2.083928
 C        -1.778732         3.544382         1.773704
 O        -2.604492         3.017402         0.707233
 C        -1.923979         2.012759        -0.143977
 H         0.605160        -0.055237         0.247863
 H         1.511575         2.031424         0.989659
 H         0.614707         2.948385        -0.138711
 H         0.375397         4.234986         2.423339
 H        -1.393702         2.584769         3.791692
 H         0.003271         0.811306         2.411418
 H        -1.764718         0.351784         2.259267
 H        -2.340894         4.394986         2.070251
 H        -2.541830         1.142807        -0.155617
 H        -1.670352         2.431087        -1.133949
