19
Iteration:  3930charge 0 multiplicity 1
 O        -0.189709         0.265773        -0.066099
 C        -0.695897         1.412860         0.624048
 C         0.113722         2.745846         0.381790
 C        -0.309174         3.588147         1.570632
 C        -0.865520         2.686041         2.694957
 C        -0.670304         1.270861         2.151205
 C        -1.785047         3.433866         1.862743
 O        -2.741047         2.732998         0.914238
 C        -2.066584         1.762765         0.121872
 H        -0.240032        -0.482769         0.533680
 H         1.160811         2.611863         0.349013
 H        -0.038036         3.173238        -0.638063
 H         0.099383         4.552528         1.727078
 H        -0.869079         2.804305         3.815739
 H         0.441306         1.028303         2.336536
 H        -1.446857         0.631499         2.438545
 H        -2.433416         4.106225         2.479816
 H        -2.667244         0.756012         0.178363
 H        -2.004965         2.087220        -0.878584
