19
Iteration:   187charge 0 multiplicity 1
 O        -0.225350         0.317995        -0.124015
 C        -0.688674         1.424602         0.662454
 C         0.213812         2.696892         0.685683
 C        -0.274773         3.426282         1.941425
 C        -1.202921         2.435580         2.735135
 C        -1.063800         1.079489         2.145852
 C        -1.775260         3.468023         1.791035
 O        -2.323858         3.107464         0.523427
 C        -1.951425         1.846255        -0.044393
 H         0.446938        -0.162824         0.385367
 H         1.368686         2.600340         0.647819
 H        -0.040558         3.346509        -0.158331
 H         0.261544         4.056317         2.612234
 H        -1.339839         2.600056         3.859814
 H        -0.393322         0.347092         2.773134
 H        -2.035557         0.638816         2.212718
 H        -2.474232         4.305294         2.159971
 H        -2.716997         1.057996         0.032170
 H        -1.599324         1.941093        -1.136480
