19
Iteration:  4854
 O        -0.212348         0.328529        -0.152805
 C        -0.686200         1.418421         0.622470
 C         0.284985         2.623618         0.556438
 C        -0.353037         3.555729         1.499523
 C        -0.876982         2.664510         2.713408
 C        -0.895309         1.187544         2.212201
 C        -1.763989         3.489682         1.735715
 O        -2.730704         2.789143         0.926180
 C        -2.049048         1.782991         0.134187
 H         0.709850         0.070072         0.078175
 H         1.317093         2.374161         0.988460
 H         0.274846         3.123301        -0.448059
 H         0.176286         4.509080         1.587662
 H        -0.561930         2.870460         3.796525
 H        -0.078584         0.608313         2.825528
 H        -1.878871         0.691275         2.291983
 H        -2.328121         4.249354         2.326145
 H        -2.742715         0.845339         0.175767
 H        -1.966565         2.159461        -0.888027
