19
Iteration:  3762
 O        -0.259182         0.278282        -0.214387
 C        -0.646053         1.389516         0.706564
 C         0.211242         2.671022         0.445337
 C        -0.403556         3.628403         1.556042
 C        -0.822567         2.725772         2.702769
 C        -0.618511         1.257466         2.202195
 C        -1.886675         3.433376         1.804417
 O        -2.722475         2.756614         0.880628
 C        -2.122211         1.690270         0.222422
 H         0.702333         0.335586        -0.293827
 H         1.197130         2.344087         0.795077
 H         0.103158         3.198758        -0.492790
 H         0.069873         4.613751         1.644738
 H        -0.779016         2.937589         3.778541
 H         0.405092         0.808618         2.554217
 H        -1.455764         0.670842         2.625092
 H        -2.352589         4.282348         2.198747
 H        -2.869246         0.816122         0.479547
 H        -2.097611         1.933237        -0.830362
