19
Iteration:  3485charge 0 multiplicity 1
 O        -0.106744         0.253237        -0.026978
 C        -0.692896         1.508493         0.541212
 C         0.244752         2.781006         0.412494
 C        -0.310262         3.590882         1.636693
 C        -0.876869         2.617589         2.629886
 C        -0.878176         1.238954         2.065877
 C        -1.799094         3.500061         1.823988
 O        -2.679227         2.674620         1.030758
 C        -2.091415         1.760363         0.080513
 H        -0.415985        -0.510705         0.517989
 H         1.284218         2.552190         0.661057
 H         0.166583         3.271773        -0.550027
 H         0.084067         4.537913         2.008154
 H        -0.720214         2.844734         3.635234
 H        -0.145911         0.433251         2.552169
 H        -1.993225         0.841199         2.217437
 H        -2.373494         4.266278         2.241483
 H        -2.661432         0.742397         0.118214
 H        -2.029585         2.259631        -0.949292
