19
Iteration:  2777charge 0 multiplicity 1
 O        -0.206102         0.231078         0.008289
 C        -0.656021         1.453843         0.619276
 C         0.355658         2.619306         0.551730
 C        -0.300609         3.544519         1.666145
 C        -1.004948         2.557375         2.628633
 C        -0.835897         1.129867         2.086155
 C        -1.866402         3.529913         1.836316
 O        -2.712402         2.933421         0.830567
 C        -2.054740         1.842918         0.089212
 H         0.450842         0.422739        -0.706331
 H         1.296685         2.132931         1.052640
 H         0.373120         3.074881        -0.387335
 H         0.453849         4.266016         2.034497
 H        -1.005504         2.699038         3.694798
 H         0.056061         0.648888         2.507889
 H        -1.720794         0.519309         2.256200
 H        -2.452114         4.437800         2.141833
 H        -2.690890         0.937996         0.032463
 H        -1.951043         2.151205        -0.973929
