19
Iteration:   850
 O        -0.144069         0.285437        -0.174744
 C        -0.734502         1.339825         0.642183
 C         0.319080         2.546710         0.860478
 C        -0.278971         3.458890         1.838696
 C        -1.211403         2.557365         2.671926
 C        -0.991580         1.040736         2.138252
 C        -1.806489         3.493939         1.739171
 O        -2.582718         3.035550         0.637572
 C        -1.899494         2.032107        -0.035140
 H         0.729056        -0.027878         0.187026
 H         1.249727         2.159129         1.311481
 H         0.366751         3.079564        -0.101249
 H         0.172335         4.389260         2.263527
 H        -1.516079         2.529729         3.663525
 H        -0.029541         0.680721         2.541383
 H        -1.887495         0.442508         2.496457
 H        -2.374213         4.224821         2.184871
 H        -2.692750         1.439962        -0.498548
 H        -1.386146         2.369547        -0.932354
