19
Iteration:  4195charge 0 multiplicity 1
 O        -0.054290         0.357482        -0.095662
 C        -0.756693         1.361968         0.680380
 C         0.066802         2.618236         0.486733
 C        -0.309678         3.632287         1.558617
 C        -0.801621         2.664054         2.662897
 C        -0.681573         1.198003         2.209981
 C        -1.804899         3.513786         1.847875
 O        -2.688920         2.876149         0.778141
 C        -2.166453         1.614919         0.253105
 H        -0.644893         0.126843        -0.826763
 H         1.163002         2.399194         0.564702
 H        -0.107166         2.978507        -0.607549
 H         0.088290         4.696086         1.527149
 H        -0.718944         2.835253         3.743951
 H         0.209716         0.630619         2.585429
 H        -1.500529         0.632823         2.525894
 H        -2.432453         4.280611         2.477528
 H        -2.876825         0.789559         0.409471
 H        -2.066279         1.711553        -0.911643
