19
Iteration:  1551charge 0 multiplicity 1
 O        -0.343263         0.330907        -0.185927
 C        -0.666564         1.414858         0.696019
 C         0.380309         2.663534         0.811285
 C        -0.377661         3.421184         1.903344
 C        -1.183812         2.471138         2.792278
 C        -0.929773         1.097758         2.158062
 C        -1.851119         3.441936         1.761904
 O        -2.414123         3.128796         0.505626
 C        -1.928540         1.830058        -0.086421
 H         0.335530        -0.272062         0.102460
 H         1.324854         2.287035         1.157917
 H         0.385974         3.357070        -0.052949
 H         0.221867         4.291111         2.302896
 H        -1.477913         2.696286         3.871980
 H         0.017191         0.652796         2.685506
 H        -1.766366         0.457985         2.264266
 H        -2.341139         4.268455         2.171896
 H        -2.607527         0.949748        -0.132779
 H        -1.525630         1.935505        -1.138820
