19
Iteration:  1250charge 0 multiplicity 1
 O        -0.151584         0.258147        -0.045044
 C        -0.649225         1.418169         0.592554
 C         0.335429         2.624978         0.660647
 C        -0.320098         3.405732         1.759260
 C        -1.143951         2.524294         2.761997
 C        -1.145645         1.028630         2.166247
 C        -1.841105         3.472391         1.842130
 O        -2.579136         3.026020         0.691383
 C        -1.842315         2.020706        -0.117804
 H         0.689234        -0.042004         0.346044
 H         1.390280         2.411899         0.898453
 H         0.345282         3.080890        -0.344186
 H         0.244503         4.409416         2.072340
 H        -1.151814         2.559569         3.902234
 H        -0.344363         0.440976         2.677357
 H        -2.139708         0.544188         2.057743
 H        -2.364795         4.284832         2.367258
 H        -2.555237         1.207437        -0.529754
 H        -1.376995         2.672831        -0.973900
