19
Iteration:  4092
 O        -0.212577         0.317742        -0.092477
 C        -0.605344         1.384999         0.673206
 C         0.084915         2.696370         0.359449
 C        -0.277541         3.629489         1.562187
 C        -0.910379         2.682584         2.640756
 C        -0.687432         1.239992         2.327489
 C        -1.835420         3.500394         1.809167
 O        -2.621286         2.728875         0.893201
 C        -2.123470         1.639630         0.197486
 H        -0.332056         0.673506        -1.015191
 H         1.191633         2.469018         0.316001
 H        -0.184426         3.076454        -0.601563
 H         0.340420         4.462510         1.768299
 H        -0.745973         2.857300         3.722427
 H         0.079611         0.901092         2.921574
 H        -1.649860         0.616723         2.418387
 H        -2.496354         4.217749         2.268932
 H        -2.770334         0.805636         0.300417
 H        -2.064767         1.941439        -0.940791
