19
Iteration:  4519charge 0 multiplicity 1
 O        -0.115365         0.309405        -0.173107
 C        -0.623780         1.348151         0.689000
 C         0.074172         2.620780         0.541310
 C        -0.272806         3.540201         1.731261
 C        -1.054287         2.607168         2.678662
 C        -0.824569         1.212606         2.235632
 C        -1.756333         3.535201         1.741037
 O        -2.584271         2.882501         0.750236
 C        -2.021331         1.763386         0.244520
 H        -0.935466         0.054802        -0.693863
 H         1.206898         2.443818         0.191009
 H        -0.235058         3.124993        -0.391404
 H         0.325042         4.407119         1.807438
 H        -0.969372         2.925139         3.728100
 H         0.021809         0.741412         2.599419
 H        -1.824010         0.603972         2.439112
 H        -2.240795         4.294942         2.197920
 H        -2.791972         0.983462         0.263147
 H        -1.839085         1.874851        -0.908882
