19
Iteration:  2104
 O        -0.296861         0.273577        -0.025025
 C        -0.698907         1.442145         0.649641
 C         0.346543         2.520296         0.798695
 C        -0.337998         3.492064         1.769686
 C        -1.273027         2.418160         2.671848
 C        -0.921034         1.039662         2.152396
 C        -1.778426         3.448226         1.758598
 O        -2.455046         3.139357         0.586351
 C        -1.937816         2.045830        -0.082123
 H         0.492189        -0.079151         0.453569
 H         1.232131         2.132142         1.251409
 H         0.676007         3.141770        -0.061537
 H         0.234041         4.293214         2.207467
 H        -1.672399         2.364757         3.679156
 H         0.117188         0.766763         2.395783
 H        -1.683807         0.209830         2.271375
 H        -2.157581         4.334279         2.340358
 H        -2.628147         1.192690        -0.157968
 H        -1.611337         2.224540        -1.196572
