19
Iteration:  3349
 O        -0.064481         0.368655        -0.136668
 C        -0.734641         1.369145         0.584755
 C         0.125798         2.708423         0.509024
 C        -0.284560         3.524612         1.729137
 C        -0.991491         2.557081         2.673589
 C        -0.789049         1.113571         2.205360
 C        -1.779454         3.476514         1.779483
 O        -2.594111         3.038965         0.725100
 C        -2.212585         1.669152         0.170570
 H         0.574219        -0.170535         0.395069
 H         1.157403         2.440619         0.471037
 H        -0.107259         3.284041        -0.405408
 H         0.279004         4.271075         2.190759
 H        -0.879151         2.746900         3.721789
 H         0.268189         0.803273         2.571949
 H        -1.556535         0.359542         2.504756
 H        -2.294573         4.259879         2.329457
 H        -2.917088         0.893859         0.665324
 H        -2.228856         1.632173        -0.895703
