19
Iteration:  3845charge 0 multiplicity 1
 O        -0.080149         0.298112        -0.036923
 C        -0.655584         1.439743         0.653548
 C         0.031507         2.743309         0.375885
 C        -0.363153         3.629226         1.578121
 C        -0.821070         2.658222         2.640357
 C        -0.652480         1.235426         2.120964
 C        -1.845779         3.411482         1.898175
 O        -2.635236         2.853119         0.868736
 C        -2.165063         1.621467         0.185035
 H        -0.723862        -0.439060         0.117115
 H         1.160543         2.529115         0.180923
 H        -0.371495         3.197809        -0.607813
 H         0.024796         4.593434         1.818517
 H        -0.765796         2.853375         3.764360
 H         0.331594         0.793412         2.404627
 H        -1.380961         0.445278         2.523102
 H        -2.363840         4.200124         2.436973
 H        -2.843456         0.773235         0.384289
 H        -2.186659         1.826219        -0.955108
