19
Iteration:  3953
 O        -0.054427         0.313258        -0.031616
 C        -0.677351         1.324377         0.628444
 C         0.103494         2.664506         0.426079
 C        -0.418920         3.535347         1.482941
 C        -0.878444         2.630157         2.638619
 C        -0.603468         1.168669         2.223444
 C        -1.827793         3.489173         1.849103
 O        -2.750917         2.828818         0.976571
 C        -2.205997         1.871393         0.055118
 H         0.223275        -0.430868         0.530649
 H         1.135040         2.589857         0.368221
 H        -0.098750         3.001522        -0.631421
 H         0.087379         4.396602         1.843187
 H        -0.436725         2.836988         3.636249
 H         0.522087         0.958012         2.369206
 H        -1.345182         0.553372         2.630392
 H        -2.256753         4.398565         2.140276
 H        -2.961418         0.984348         0.059492
 H        -2.120942         2.288271        -0.907602
