19
Iteration:  4243charge 0 multiplicity 1
 O        -0.252550         0.245807        -0.152489
 C        -0.612735         1.435870         0.645811
 C         0.130493         2.719031         0.465228
 C        -0.374571         3.608631         1.604125
 C        -0.920620         2.632632         2.660112
 C        -0.572754         1.227211         2.182562
 C        -1.857126         3.460405         1.805889
 O        -2.680299         2.905979         0.821570
 C        -2.075652         1.684631         0.211072
 H        -0.215561        -0.492314         0.505955
 H         1.217967         2.566396         0.601681
 H         0.010245         3.125763        -0.570619
 H         0.177169         4.393722         1.991216
 H        -0.954288         2.836373         3.734315
 H         0.443191         0.801544         2.389298
 H        -1.317071         0.499889         2.608224
 H        -2.397307         4.255003         2.153746
 H        -2.713815         0.785708         0.612520
 H        -2.165839         1.640093        -0.838522
