19
Iteration:  4247charge 0 multiplicity 1
 O        -0.261934         0.241244        -0.157493
 C        -0.662331         1.422417         0.653709
 C         0.120923         2.752947         0.466689
 C        -0.404453         3.595044         1.599551
 C        -0.888883         2.621387         2.647740
 C        -0.569962         1.209736         2.223603
 C        -1.850440         3.448029         1.791135
 O        -2.647197         2.881293         0.801271
 C        -2.078523         1.714156         0.208821
 H        -0.096969        -0.436022         0.503021
 H         1.182238         2.603039         0.667309
 H        -0.046746         3.106137        -0.511051
 H         0.170898         4.522994         2.020102
 H        -0.785074         2.905813         3.703488
 H         0.405362         0.822080         2.472590
 H        -1.311620         0.461385         2.666798
 H        -2.397492         4.357817         2.233421
 H        -2.657873         0.872433         0.551314
 H        -2.150347         1.716724        -0.913522
