19
Iteration:   986charge 0 multiplicity 1
 O        -0.167518         0.308028        -0.143609
 C        -0.618637         1.457138         0.600385
 C         0.371318         2.597147         0.756433
 C        -0.266800         3.432199         1.889811
 C        -1.233548         2.551451         2.747112
 C        -1.096297         1.075269         2.081030
 C        -1.819016         3.471205         1.780685
 O        -2.496260         3.050217         0.656839
 C        -1.961297         1.877721        -0.057771
 H         0.654665        -0.030649         0.243417
 H         1.359432         2.207395         1.111823
 H         0.477381         3.246383        -0.151214
 H         0.239270         4.280176         2.157938
 H        -1.671754         2.727874         3.794229
 H        -0.228869         0.568312         2.554152
 H        -2.039501         0.425837         2.039559
 H        -2.487927         4.278966         2.361713
 H        -2.574707         0.998693         0.001540
 H        -1.847267         2.081652        -1.107382
