19
Iteration:  4486
 O        -0.232148         0.198939         0.075161
 C        -0.693379         1.477080         0.608768
 C         0.264511         2.670827         0.551293
 C        -0.368523         3.572841         1.653831
 C        -0.936735         2.555113         2.660024
 C        -0.652695         1.219275         2.107131
 C        -1.827259         3.373411         1.820645
 O        -2.643826         2.993979         0.687981
 C        -2.190159         1.804505         0.141852
 H         0.382905         0.303115        -0.676884
 H         1.288079         2.220139         0.955330
 H         0.341364         3.120672        -0.453829
 H         0.033719         4.556692         1.914945
 H        -0.835822         2.561446         3.730166
 H         0.280077         0.735988         2.215828
 H        -1.482420         0.446848         2.387163
 H        -2.311319         4.067894         2.411678
 H        -2.814987         0.978408         0.533971
 H        -2.254586         1.904375        -0.951144
