19
Iteration:  1706
 O        -0.065533         0.300348        -0.079725
 C        -0.725635         1.448086         0.591682
 C         0.303024         2.484752         0.764236
 C        -0.240250         3.384027         1.887956
 C        -1.082607         2.512630         2.766855
 C        -1.274008         1.179254         2.087015
 C        -1.763057         3.521139         1.782054
 O        -2.579106         2.951474         0.726837
 C        -1.921740         2.013547        -0.244752
 H         0.628928         0.029964         0.586321
 H         1.354597         2.090321         1.052639
 H         0.607658         3.062170        -0.127240
 H         0.361657         4.163875         2.312311
 H        -0.908331         2.716120         3.805336
 H        -0.587084         0.390735         2.595178
 H        -2.319419         0.863419         2.079016
 H        -2.406014         4.362807         2.172579
 H        -2.701429         1.278681        -0.444139
 H        -1.500379         2.547019        -1.213360
