19
Iteration:  2924charge 0 multiplicity 1
 O        -0.263213         0.343157        -0.198401
 C        -0.701270         1.431540         0.677141
 C         0.291647         2.716289         0.601216
 C        -0.324974         3.491865         1.830938
 C        -1.162835         2.496598         2.617676
 C        -0.809161         1.089039         2.181496
 C        -1.815520         3.556535         1.710488
 O        -2.374187         3.038449         0.522114
 C        -2.126402         1.657492         0.425860
 H         0.145282         0.605742        -1.044225
 H         1.312343         2.268506         0.719181
 H         0.222090         3.299705        -0.341887
 H         0.073674         4.306642         2.415169
 H        -1.032018         2.552123         3.684189
 H         0.170379         0.827247         2.653856
 H        -1.496557         0.214088         2.426100
 H        -2.421249         4.179477         2.191412
 H        -2.819616         0.920640         0.992826
 H        -2.403482         1.511028        -0.627390
