19
Iteration:   604charge 0 multiplicity 1
 O        -0.301961         0.294242        -0.201508
 C        -0.650109         1.389908         0.599168
 C         0.347691         2.592073         0.833200
 C        -0.366717         3.434720         1.904975
 C        -1.105847         2.518812         2.769845
 C        -1.023644         1.113924         2.219449
 C        -1.837898         3.496738         1.781675
 O        -2.541418         3.057389         0.578467
 C        -1.834783         1.918076        -0.158427
 H         0.531317        -0.125142         0.181364
 H         1.206419         2.020862         1.290614
 H         0.564289         3.118499        -0.089502
 H         0.243928         4.338443         2.349290
 H        -1.155443         2.721607         3.857155
 H        -0.209966         0.469103         2.727050
 H        -1.917432         0.558174         2.230447
 H        -2.360624         4.378336         2.188126
 H        -2.613392         1.162395        -0.332641
 H        -1.380310         2.222073        -1.046673
