19
Iteration:  4899
 O        -0.220401         0.217425        -0.049616
 C        -0.666745         1.472155         0.593041
 C         0.219389         2.704180         0.524439
 C        -0.333614         3.526296         1.612938
 C        -0.885863         2.659780         2.696025
 C        -0.772529         1.205773         2.167514
 C        -1.805789         3.419120         1.796889
 O        -2.705345         2.812774         0.903536
 C        -2.061449         1.851462         0.016142
 H         0.123986        -0.380726         0.646273
 H         1.331695         2.558915         0.690629
 H        -0.009523         3.112552        -0.490798
 H         0.159029         4.447255         1.927303
 H        -0.948128         3.007751         3.717719
 H         0.254047         0.659674         2.307856
 H        -1.613499         0.591181         2.371878
 H        -2.255503         4.353883         2.008252
 H        -2.726266         0.894870         0.070043
 H        -2.062247         2.258465        -0.995673
