19
Iteration:  3257charge 0 multiplicity 1
 O        -0.061068         0.264135        -0.032298
 C        -0.610973         1.403156         0.556992
 C         0.333954         2.669695         0.558216
 C        -0.342065         3.586600         1.621103
 C        -0.921160         2.598125         2.668037
 C        -0.992524         1.213855         2.064381
 C        -1.844434         3.448785         1.870706
 O        -2.708630         2.786420         0.966813
 C        -2.028451         1.880943         0.024476
 H        -0.804209        -0.289692        -0.291706
 H         1.410241         2.245205         0.634558
 H         0.339857         3.115853        -0.510731
 H         0.133124         4.530621         2.049447
 H        -0.742938         2.921476         3.756187
 H        -0.311966         0.462925         2.483693
 H        -2.051535         0.871696         2.150809
 H        -2.297876         4.426276         2.177196
 H        -2.685628         0.929820        -0.034242
 H        -2.032180         2.414628        -0.927775
