19
Iteration:  3590
 O        -0.048896         0.252476         0.034383
 C        -0.702659         1.382615         0.605119
 C         0.026132         2.733882         0.418142
 C        -0.310123         3.608976         1.671208
 C        -0.895859         2.561619         2.715048
 C        -0.698970         1.156929         2.087615
 C        -1.799635         3.459563         1.815924
 O        -2.621401         2.963788         0.769473
 C        -2.182862         1.665038         0.249885
 H        -0.002939         0.377792        -0.949797
 H         1.135384         2.595033         0.320181
 H        -0.310996         3.280512        -0.525475
 H         0.184749         4.574859         1.929755
 H        -1.014766         2.648118         3.844567
 H         0.233182         0.794600         2.419643
 H        -1.459139         0.491088         2.365446
 H        -2.346584         4.283812         2.148579
 H        -2.960176         1.031604         0.558795
 H        -2.193034         1.691974        -0.921905
