19
Iteration:  4513
 O        -0.129394         0.283667        -0.127031
 C        -0.665737         1.352408         0.708431
 C         0.099249         2.630621         0.482662
 C        -0.322115         3.512754         1.727315
 C        -1.013522         2.650137         2.677500
 C        -0.771990         1.151611         2.240340
 C        -1.802437         3.555342         1.750931
 O        -2.570255         2.918442         0.758720
 C        -2.026852         1.770348         0.184720
 H        -0.718241         0.200692        -0.896046
 H         1.137850         2.389582         0.396283
 H        -0.213737         3.042865        -0.491484
 H         0.294770         4.404730         2.009478
 H        -1.072165         2.682827         3.785298
 H         0.218679         0.665653         2.588010
 H        -1.606061         0.547553         2.459968
 H        -2.359542         4.491289         2.141249
 H        -2.795105         0.952826         0.327778
 H        -1.876649         1.965471        -0.887834
