19
Iteration:  2605charge 0 multiplicity 1
 O        -0.130325         0.305468         0.009864
 C        -0.635831         1.510900         0.550492
 C         0.414068         2.584406         0.590607
 C        -0.289333         3.417605         1.615248
 C        -0.998929         2.634756         2.708288
 C        -1.043908         1.242188         2.052195
 C        -1.849976         3.451841         1.794705
 O        -2.697439         2.793865         0.951016
 C        -1.960070         1.944006        -0.011716
 H        -0.738538        -0.413425         0.190691
 H         1.361641         2.223103         0.980333
 H         0.639806         3.029623        -0.410401
 H         0.129701         4.352119         1.882044
 H        -0.895245         2.857275         3.710178
 H        -0.278146         0.487787         2.353078
 H        -1.983227         0.697331         1.993708
 H        -2.334473         4.288415         2.206491
 H        -2.618813         1.084551        -0.036363
 H        -1.900707         2.431957        -1.037075
