19
Iteration:  4491
 O        -0.212863         0.215113         0.055053
 C        -0.688208         1.434866         0.606611
 C         0.255928         2.698636         0.547819
 C        -0.365979         3.568264         1.621842
 C        -0.985142         2.544829         2.681589
 C        -0.707745         1.185412         2.170056
 C        -1.790458         3.394778         1.848519
 O        -2.636775         3.008694         0.692299
 C        -2.177766         1.756585         0.114012
 H         0.130884         0.429175        -0.848373
 H         1.245930         2.361314         0.818822
 H         0.340620         3.167682        -0.438883
 H         0.213693         4.466668         1.857581
 H        -0.680676         2.771447         3.754546
 H         0.392542         0.844104         2.294530
 H        -1.386883         0.411168         2.427766
 H        -2.321539         4.209064         2.456240
 H        -2.892727         0.928107         0.420025
 H        -2.175918         1.885196        -0.983319
