19
Iteration:  1153charge 0 multiplicity 1
 O        -0.244876         0.313766        -0.065906
 C        -0.678303         1.448457         0.606931
 C         0.306564         2.651507         0.752281
 C        -0.360113         3.422262         1.875318
 C        -1.188824         2.469354         2.733029
 C        -0.991970         1.143611         2.018859
 C        -1.801168         3.440021         1.782220
 O        -2.440255         2.999300         0.659149
 C        -1.928877         1.895279        -0.082800
 H         0.518095        -0.130531         0.348911
 H         1.258747         2.276324         1.230082
 H         0.460854         3.373115        -0.057299
 H         0.150265         4.450122         2.165767
 H        -1.313984         2.639613         3.808801
 H        -0.148222         0.605393         2.540880
 H        -1.911317         0.631055         2.062399
 H        -2.257210         4.311329         2.220624
 H        -2.655395         1.073451        -0.143751
 H        -1.662738         2.172293        -1.107932
