19
Iteration:  4956charge 0 multiplicity 1
 O        -0.306532         0.334457        -0.169918
 C        -0.651953         1.456546         0.675548
 C         0.167962         2.697825         0.512527
 C        -0.205281         3.533188         1.702949
 C        -0.983490         2.653630         2.726164
 C        -0.799606         1.232835         2.172487
 C        -1.826272         3.493710         1.735418
 O        -2.612168         2.854585         0.754598
 C        -2.059930         1.602122         0.219237
 H         0.506306        -0.163051         0.004663
 H         1.245014         2.461937         0.498055
 H        -0.056076         3.300063        -0.429648
 H         0.414649         4.371791         2.068576
 H        -1.061157         2.952975         3.735360
 H         0.212315         0.827298         2.605289
 H        -1.451579         0.458734         2.316571
 H        -2.360118         4.345743         2.165454
 H        -2.736788         0.699581         0.391562
 H        -1.951550         1.740124        -0.848463
