19
Iteration:  4282
 O        -0.195695         0.235116        -0.033691
 C        -0.742283         1.440028         0.637732
 C         0.047096         2.665597         0.434665
 C        -0.336867         3.584945         1.619422
 C        -0.826906         2.626808         2.680809
 C        -0.673950         1.248264         2.196354
 C        -1.813176         3.422255         1.821697
 O        -2.658983         2.852015         0.800990
 C        -2.089540         1.733855         0.158140
 H         0.618674         0.544439        -0.437042
 H         1.110293         2.422184         0.467040
 H        -0.102831         3.080884        -0.600299
 H         0.291994         4.475199         1.883485
 H        -0.869080         2.937968         3.712316
 H         0.262673         0.781909         2.538320
 H        -1.545990         0.687074         2.479157
 H        -2.270075         4.278620         2.402684
 H        -2.576963         0.864061         0.472436
 H        -2.255730         1.922098        -0.979742
