19
Iteration:  4573
 O        -0.194075         0.198161        -0.030571
 C        -0.649161         1.369899         0.626386
 C         0.279164         2.623935         0.540073
 C        -0.352820         3.629587         1.634277
 C        -0.969247         2.520521         2.633315
 C        -0.701650         1.172659         2.126081
 C        -1.854132         3.463496         1.854007
 O        -2.738973         3.011877         0.835193
 C        -2.106412         1.851891         0.020337
 H         0.480397        -0.184576         0.582597
 H         1.281164         2.337993         0.890137
 H         0.325650         3.009093        -0.479341
 H         0.202724         4.505886         1.842805
 H        -1.268935         2.703647         3.677397
 H         0.295137         0.832808         2.314087
 H        -1.407174         0.370208         2.541098
 H        -2.116230         4.337111         2.343668
 H        -2.822313         1.076047         0.123156
 H        -2.033043         2.124934        -1.127154
