19
Iteration:  1280charge 0 multiplicity 1
 O        -0.167677         0.335033        -0.135392
 C        -0.713606         1.434415         0.616313
 C         0.347791         2.496597         0.873596
 C        -0.298926         3.426758         1.854243
 C        -1.144592         2.573000         2.740202
 C        -1.029594         1.082122         2.071369
 C        -1.815950         3.524827         1.742647
 O        -2.594634         3.027369         0.640187
 C        -1.945939         1.927047        -0.101786
 H         0.643613         0.018897         0.262020
 H         1.299447         2.131528         1.270446
 H         0.583166         2.997299        -0.106159
 H         0.249415         4.325095         2.117363
 H        -1.105185         2.551945         3.853264
 H        -0.122628         0.657158         2.515840
 H        -1.824806         0.271282         2.392238
 H        -2.329067         4.361643         2.201591
 H        -2.557874         1.040403        -0.320519
 H        -1.670863         2.332004        -1.033297
