19
Iteration:  4346charge 0 multiplicity 1
 O        -0.268164         0.358244        -0.153894
 C        -0.692394         1.397242         0.706422
 C         0.144101         2.651986         0.477829
 C        -0.385828         3.661591         1.525735
 C        -0.833543         2.646554         2.769339
 C        -0.666753         1.214366         2.292100
 C        -1.783943         3.442199         1.837116
 O        -2.662939         2.811386         0.810182
 C        -2.064570         1.721980         0.021170
 H        -0.318062        -0.541677         0.217594
 H         1.131940         2.252326         0.683699
 H         0.054220         2.972516        -0.500521
 H         0.061538         4.583521         1.964968
 H        -0.720084         2.835417         3.813085
 H         0.306331         0.809710         2.619555
 H        -1.456201         0.480769         2.717876
 H        -2.430999         4.301220         2.184730
 H        -2.655297         0.714966         0.030809
 H        -1.916810         2.107348        -0.995246
