19
Iteration:  4174
 O        -0.173039         0.245626        -0.059844
 C        -0.693271         1.356130         0.673537
 C         0.039227         2.748681         0.360697
 C        -0.384846         3.591001         1.536224
 C        -0.800375         2.695954         2.708885
 C        -0.738948         1.255667         2.306052
 C        -1.849132         3.375745         1.837490
 O        -2.561335         2.843749         0.850624
 C        -2.059416         1.675585         0.150486
 H        -0.371913         0.545963        -0.963834
 H         1.153363         2.691565         0.261772
 H        -0.406470         3.164245        -0.653119
 H         0.269176         4.404145         1.897084
 H        -0.693375         3.078099         3.728115
 H         0.203335         0.741740         2.703313
 H        -1.490708         0.594724         2.632333
 H        -2.394923         4.281799         2.327440
 H        -2.805557         0.814005         0.274099
 H        -2.100251         1.916502        -0.934148
