19
Iteration:  4387charge 0 multiplicity 1
 O        -0.217849         0.153592         0.056201
 C        -0.635558         1.481301         0.565994
 C         0.253503         2.700244         0.444282
 C        -0.347975         3.606390         1.611489
 C        -0.975798         2.553991         2.692570
 C        -0.726016         1.223727         2.081311
 C        -1.813294         3.525359         1.835242
 O        -2.749695         2.875716         0.873849
 C        -2.076057         1.757819         0.125347
 H         0.407623         0.461169        -0.636379
 H         1.309861         2.439660         0.869844
 H         0.253991         3.077986        -0.611191
 H         0.376278         4.529151         1.776618
 H        -0.660145         2.774912         3.706914
 H         0.190181         0.776423         2.420244
 H        -1.481235         0.344048         2.231917
 H        -2.393652         4.382999         2.366324
 H        -2.686643         0.818088         0.453982
 H        -2.225279         1.793594        -0.928478
