19
Iteration:  3862
 O        -0.041835         0.396199        -0.099515
 C        -0.757541         1.324199         0.671683
 C         0.024618         2.662410         0.363753
 C        -0.355527         3.558497         1.586647
 C        -0.873537         2.599036         2.732255
 C        -0.541026         1.214314         2.257985
 C        -1.793974         3.481939         1.750371
 O        -2.781564         2.827369         0.856254
 C        -2.134069         1.723724         0.222093
 H        -0.576126        -0.396957        -0.342868
 H         1.075611         2.613544         0.408574
 H        -0.089331         3.201886        -0.556602
 H         0.352135         4.420025         1.559081
 H        -0.692442         3.037106         3.679964
 H         0.552345         1.005933         2.433684
 H        -1.216873         0.543266         2.699488
 H        -2.257116         4.450817         2.224262
 H        -2.919495         0.905369         0.375995
 H        -2.116696         1.926125        -0.804194
