19
Iteration:  3606
 O        -0.045590         0.215003        -0.030162
 C        -0.694123         1.353691         0.691304
 C        -0.016027         2.737330         0.438343
 C        -0.399394         3.518879         1.578630
 C        -0.861324         2.575227         2.623400
 C        -0.627739         1.109253         2.293406
 C        -1.853930         3.439113         1.885108
 O        -2.616606         3.035359         0.733038
 C        -2.189747         1.771126         0.134232
 H         0.413058         0.672383        -0.774555
 H         1.068667         2.647769         0.235592
 H        -0.292283         3.121810        -0.538640
 H         0.200300         4.372783         1.835457
 H        -0.687868         2.932583         3.602331
 H         0.449114         0.794744         2.557067
 H        -1.569319         0.540222         2.643687
 H        -2.401296         4.075614         2.679356
 H        -2.895730         0.886436         0.467297
 H        -2.214445         1.946466        -0.885850
