19
Iteration:   492charge 0 multiplicity 1
 O        -0.216590         0.259703        -0.138494
 C        -0.628795         1.447532         0.663243
 C         0.424644         2.560301         0.798100
 C        -0.292547         3.432082         1.830691
 C        -1.326835         2.393695         2.723035
 C        -0.936778         1.077254         2.125080
 C        -1.775960         3.472165         1.750528
 O        -2.592810         3.157886         0.569888
 C        -1.963807         2.001108        -0.051766
 H         0.484426        -0.166685         0.378743
 H         1.321451         2.109141         1.393378
 H         0.803745         2.984235        -0.199412
 H         0.343405         4.350120         2.378349
 H        -1.646507         2.660584         3.689853
 H        -0.107496         0.626822         2.753265
 H        -1.680484         0.250533         2.216196
 H        -2.272304         4.297489         2.196811
 H        -2.806374         1.356589         0.025209
 H        -1.727603         2.303198        -1.018832
