19
Iteration:  1387charge 0 multiplicity 1
 O        -0.218981         0.305146        -0.191979
 C        -0.597538         1.392686         0.676452
 C         0.306784         2.675534         0.756949
 C        -0.297889         3.411035         1.883228
 C        -1.197928         2.515261         2.694271
 C        -1.086988         1.029424         2.077202
 C        -1.848175         3.505898         1.771085
 O        -2.409845         3.105542         0.582400
 C        -1.926586         1.850702         0.034984
 H         0.416468        -0.203331         0.355528
 H         1.378718         2.506998         0.989795
 H         0.217550         3.336226        -0.133689
 H         0.167475         4.195795         2.396357
 H        -1.341106         2.684165         3.813557
 H        -0.318424         0.500078         2.672211
 H        -2.022009         0.557960         2.198736
 H        -2.382195         4.358390         2.268105
 H        -2.621455         1.048467         0.343232
 H        -1.882604         1.939689        -1.098380
