19
Iteration:  2247
 O        -0.255672         0.307722        -0.194909
 C        -0.740283         1.380573         0.692420
 C         0.321187         2.540947         0.719699
 C        -0.275025         3.479718         1.801739
 C        -1.193601         2.492819         2.774226
 C        -0.980589         1.094950         2.350136
 C        -1.787510         3.404672         1.747198
 O        -2.426083         3.139898         0.547360
 C        -1.996509         1.864646        -0.029830
 H         0.576005         0.627935        -0.584877
 H         1.329946         2.273955         1.008264
 H         0.416673         3.169178        -0.203001
 H         0.186627         4.416783         2.146542
 H        -1.286797         2.907470         3.793116
 H         0.032604         0.767342         2.579825
 H        -1.893813         0.461185         2.446647
 H        -2.357439         4.223599         2.186498
 H        -2.703261         1.034595         0.171252
 H        -1.800168         1.912458        -1.059569
