19
Iteration:  1917
 O        -0.220806         0.275667        -0.107808
 C        -0.660926         1.433021         0.658768
 C         0.371635         2.539461         0.845489
 C        -0.307361         3.411629         1.836575
 C        -1.132495         2.508831         2.719271
 C        -1.167695         1.136940         2.127523
 C        -1.779086         3.457754         1.713611
 O        -2.542916         2.981460         0.686387
 C        -1.878552         2.019789        -0.162177
 H         0.684784         0.178284         0.300015
 H         1.470020         2.264686         1.284510
 H         0.560189         3.068149        -0.106722
 H         0.312772         4.230889         2.262217
 H        -1.266578         2.601130         3.790163
 H        -0.449335         0.408673         2.565087
 H        -2.205271         0.782898         2.105720
 H        -2.252943         4.337435         1.983149
 H        -2.631068         1.309827        -0.455830
 H        -1.587106         2.668028        -1.061259
