19
Iteration:   297charge 0 multiplicity 1
 O        -0.214124         0.232947        -0.079069
 C        -0.626912         1.426217         0.614696
 C         0.383298         2.556549         0.741701
 C        -0.337584         3.462329         1.844335
 C        -1.134988         2.491520         2.761035
 C        -1.130267         1.093672         2.064137
 C        -1.777565         3.480202         1.792572
 O        -2.570879         3.012531         0.706786
 C        -1.872953         2.062696        -0.140130
 H         0.605169        -0.102090         0.358086
 H         1.250991         2.208062         1.309314
 H         0.550065         3.049123        -0.143530
 H         0.357702         4.377337         2.057461
 H        -1.372597         2.413582         3.805324
 H        -0.368877         0.409992         2.560935
 H        -2.104663         0.691805         2.181873
 H        -2.336401         4.329878         2.093649
 H        -2.648912         1.308394        -0.454731
 H        -1.644500         2.565227        -1.157848
