19
Iteration:  3852
 O        -0.060150         0.324276        -0.053375
 C        -0.707779         1.409069         0.654464
 C         0.002540         2.727280         0.426289
 C        -0.346794         3.595540         1.527309
 C        -0.820790         2.644729         2.696508
 C        -0.610737         1.222938         2.177394
 C        -1.806268         3.439956         1.832095
 O        -2.712490         2.871152         0.879258
 C        -2.125874         1.661265         0.143509
 H        -0.666635        -0.439810        -0.072689
 H         1.000418         2.524420         0.294479
 H        -0.482089         3.066661        -0.483568
 H         0.166611         4.546095         1.745264
 H        -0.792867         2.695898         3.769019
 H         0.462629         0.857276         2.388330
 H        -1.264260         0.471125         2.557730
 H        -2.418018         4.295718         2.332387
 H        -2.725057         0.730235         0.468704
 H        -2.157396         1.777735        -0.903857
