19
Iteration:   636charge 0 multiplicity 1
 O        -0.216211         0.294144        -0.146507
 C        -0.651548         1.431087         0.642657
 C         0.320387         2.555130         0.755321
 C        -0.304868         3.478430         1.910187
 C        -1.234264         2.472755         2.674929
 C        -1.049469         1.086321         2.092853
 C        -1.765681         3.495619         1.760022
 O        -2.511891         3.134764         0.581249
 C        -1.889049         1.883454         0.007800
 H         0.506805        -0.071513         0.357288
 H         1.280039         2.140981         1.022919
 H         0.432252         3.131044        -0.211251
 H         0.237288         4.373831         2.556268
 H        -1.475747         2.480827         3.743603
 H        -0.211501         0.485783         2.593906
 H        -1.852036         0.357337         2.210793
 H        -2.273154         4.224522         2.400914
 H        -2.719038         1.194124         0.084172
 H        -1.616370         2.053068        -1.056108
