19
Iteration:  1324charge 0 multiplicity 1
 O        -0.259597         0.343346        -0.164237
 C        -0.683154         1.352344         0.683340
 C         0.287375         2.644452         0.799979
 C        -0.337706         3.487026         1.866076
 C        -1.170780         2.486726         2.672246
 C        -0.987836         1.009188         2.153345
 C        -1.843305         3.551036         1.787601
 O        -2.471799         3.087503         0.570791
 C        -1.858008         1.853333        -0.002461
 H         0.556913        -0.106797         0.008134
 H         1.297089         2.291310         1.058452
 H         0.470340         3.063907        -0.219822
 H         0.231421         4.321490         2.372296
 H        -1.456492         2.595925         3.789406
 H        -0.117424         0.452110         2.511554
 H        -1.911282         0.303370         2.035087
 H        -2.241114         4.511461         2.175303
 H        -2.719619         1.207039         0.021441
 H        -1.523528         1.922134        -0.988423
