19
Iteration:  4407charge 0 multiplicity 1
 O        -0.058140         0.321131        -0.003905
 C        -0.686199         1.409284         0.593820
 C         0.238608         2.633256         0.532003
 C        -0.352010         3.586246         1.576911
 C        -0.870973         2.636512         2.626521
 C        -0.824687         1.218946         2.147711
 C        -1.819743         3.406355         1.778046
 O        -2.648250         2.892709         0.848752
 C        -2.201279         1.723287         0.211147
 H        -0.456361         0.080042        -0.850631
 H         1.295709         2.258550         0.752215
 H         0.219085         3.115174        -0.524288
 H         0.103996         4.573147         2.003563
 H        -0.861261         2.684360         3.730432
 H         0.052583         0.684054         2.507986
 H        -1.698355         0.599892         2.438745
 H        -2.207616         4.397822         2.222616
 H        -2.960511         0.962240         0.336937
 H        -2.216994         1.913214        -0.925170
