19
Iteration:  4289charge 0 multiplicity 1
 O        -0.152464         0.235207        -0.004886
 C        -0.684499         1.405692         0.603941
 C         0.113891         2.714097         0.435555
 C        -0.308226         3.522337         1.609148
 C        -0.887389         2.632333         2.657169
 C        -0.729144         1.230682         2.152601
 C        -1.802855         3.493157         1.774087
 O        -2.678086         2.852382         0.856447
 C        -2.148806         1.735200         0.216371
 H         0.493798         0.550544        -0.656648
 H         1.177136         2.401708         0.467629
 H        -0.017333         3.292928        -0.447069
 H         0.276418         4.497820         1.801990
 H        -0.691212         2.872526         3.715114
 H         0.222914         0.893693         2.555978
 H        -1.537213         0.445397         2.459252
 H        -2.445960         4.256545         2.300559
 H        -2.759307         0.760185         0.428395
 H        -2.303387         1.875869        -0.833411
