19
Iteration:  2875charge 0 multiplicity 1
 O        -0.109895         0.247147         0.095420
 C        -0.754078         1.347576         0.640483
 C         0.207093         2.687184         0.580639
 C        -0.304229         3.467273         1.700754
 C        -0.974112         2.547435         2.623635
 C        -0.813093         1.141525         2.090105
 C        -1.879850         3.419648         1.867541
 O        -2.575248         3.038779         0.734401
 C        -2.102935         1.893668         0.020853
 H        -0.140379         0.213811        -0.878168
 H         1.244862         2.375157         0.911394
 H         0.149993         3.136671        -0.436466
 H         0.417660         4.215680         2.142098
 H        -0.877981         2.633727         3.721873
 H         0.174567         0.742202         2.333050
 H        -1.429905         0.286088         2.345723
 H        -2.327912         4.458525         2.231460
 H        -2.901827         1.142438        -0.038846
 H        -2.125824         2.225694        -1.090567
