19
Iteration:  2375
 O        -0.215115         0.260723        -0.076227
 C        -0.655382         1.411420         0.623195
 C         0.377629         2.599426         0.755464
 C        -0.283063         3.503843         1.736606
 C        -1.079499         2.537092         2.640002
 C        -1.021770         1.129645         2.036482
 C        -1.756788         3.565921         1.689153
 O        -2.602602         2.938229         0.818090
 C        -2.036968         1.912206         0.004869
 H         0.705615         0.051875         0.183121
 H         1.221291         2.043695         1.164871
 H         0.679268         3.165671        -0.197805
 H         0.272753         4.337911         2.199595
 H        -1.282660         2.743822         3.745214
 H        -0.539052         0.322688         2.586376
 H        -2.011623         0.751945         2.086534
 H        -2.376302         4.198932         2.388784
 H        -2.598643         0.978491        -0.071798
 H        -1.753474         2.365618        -0.991509
