19
Iteration:  1204
 O        -0.211515         0.357854        -0.186929
 C        -0.711338         1.436333         0.684857
 C         0.432561         2.519494         0.838712
 C        -0.299058         3.536132         1.772106
 C        -1.251709         2.515271         2.755452
 C        -1.041194         1.072878         2.111245
 C        -1.778599         3.458193         1.746064
 O        -2.567129         2.956603         0.685901
 C        -1.929607         1.977724        -0.100838
 H         0.688578         0.029736         0.104055
 H         1.348510         2.171377         1.287919
 H         0.688578         2.974410        -0.131394
 H         0.181294         4.347672         2.188169
 H        -1.256050         2.614017         3.804529
 H        -0.159818         0.766075         2.626713
 H        -1.893489         0.346386         2.350143
 H        -2.235337         4.342107         2.117986
 H        -2.549236         1.025126        -0.059869
 H        -1.649183         2.220594        -1.174270
