19
Iteration:   626charge 0 multiplicity 1
 O        -0.278799         0.362709        -0.186511
 C        -0.662824         1.392870         0.718980
 C         0.355989         2.602804         0.764125
 C        -0.326101         3.442551         1.842021
 C        -1.242211         2.432057         2.749199
 C        -1.066567         1.087004         2.185444
 C        -1.797652         3.453126         1.738661
 O        -2.435648         3.070406         0.583498
 C        -1.855132         1.960835        -0.029278
 H         0.426400        -0.127404         0.207106
 H         1.388522         2.241024         0.867463
 H         0.187898         2.909866        -0.247689
 H         0.262059         4.337475         2.298238
 H        -1.377745         2.688812         3.795793
 H        -0.161183         0.587836         2.688595
 H        -1.927086         0.462646         2.180569
 H        -2.403400         4.265908         2.096772
 H        -2.528858         1.090808        -0.079480
 H        -1.536452         2.222216        -0.999637
