19
Iteration:  1003charge 0 multiplicity 1
 O        -0.102660         0.408857        -0.082432
 C        -0.768985         1.378696         0.665217
 C         0.236877         2.581676         0.755766
 C        -0.313670         3.403898         1.836937
 C        -1.129961         2.437303         2.714575
 C        -1.040406         1.094254         2.159229
 C        -1.815997         3.467230         1.753535
 O        -2.502526         3.056056         0.583469
 C        -1.935127         1.959969        -0.083370
 H         0.675802         0.142762         0.448333
 H         1.226165         2.171038         0.955813
 H         0.335075         2.962996        -0.267472
 H         0.275725         4.152836         2.474806
 H        -1.019743         2.469217         3.800093
 H        -0.293405         0.462755         2.639492
 H        -1.991140         0.566219         2.295242
 H        -2.248026         4.303776         2.135778
 H        -2.751148         1.172033        -0.246397
 H        -1.554710         2.345419        -1.086452
