19
Iteration:  3348
 O        -0.074732         0.365142        -0.132947
 C        -0.728715         1.373653         0.573255
 C         0.140111         2.711245         0.503876
 C        -0.283485         3.529734         1.728233
 C        -0.996486         2.553456         2.668826
 C        -0.794484         1.115781         2.199165
 C        -1.778951         3.481472         1.792570
 O        -2.597660         3.029023         0.720520
 C        -2.206250         1.668822         0.184986
 H         0.595988        -0.135084         0.366601
 H         1.199418         2.417906         0.504148
 H        -0.103641         3.282592        -0.445888
 H         0.276839         4.287782         2.205395
 H        -0.915281         2.755465         3.688485
 H         0.227625         0.796835         2.581534
 H        -1.529403         0.382432         2.524327
 H        -2.295474         4.219012         2.368068
 H        -2.950897         0.917832         0.661746
 H        -2.201918         1.622972        -0.879727
