19
Iteration:  2836
 O        -0.326967         0.172862        -0.034988
 C        -0.616529         1.465497         0.618206
 C         0.375956         2.686881         0.650397
 C        -0.319947         3.547784         1.629992
 C        -0.957014         2.633868         2.665234
 C        -0.956028         1.213991         2.144027
 C        -1.830724         3.459978         1.770637
 O        -2.641333         2.720160         0.931476
 C        -1.942691         1.921758        -0.032580
 H        -0.095714         0.441979        -0.951987
 H         1.471855         2.523109         0.680862
 H         0.314397         3.222571        -0.305840
 H         0.169670         4.386478         2.061628
 H        -0.792864         2.768737         3.744477
 H        -0.208374         0.568231         2.677572
 H        -1.977103         0.787609         2.311029
 H        -2.454142         4.299677         2.126503
 H        -2.511467         1.018306        -0.382875
 H        -1.697661         2.580320        -0.847431
