19
Iteration:   575charge 0 multiplicity 1
 O        -0.200494         0.293239        -0.026048
 C        -0.631486         1.417181         0.555858
 C         0.425421         2.557344         0.815814
 C        -0.304015         3.419440         1.799629
 C        -1.217232         2.442612         2.651369
 C        -1.077186         1.084515         2.059836
 C        -1.808116         3.523754         1.773664
 O        -2.594631         3.052842         0.746848
 C        -1.916076         2.004668        -0.096724
 H         0.684369         0.118630         0.325888
 H         1.286468         1.964454         1.201622
 H         0.797075         3.032409        -0.097342
 H         0.150067         4.207570         2.142692
 H        -1.386899         2.662936         3.687438
 H        -0.308160         0.608276         2.629370
 H        -1.986952         0.490076         1.924173
 H        -2.163213         4.419907         2.182843
 H        -2.693382         1.224883        -0.324469
 H        -1.552756         2.398912        -1.122393
