19
Iteration:  1700charge 0 multiplicity 1
 O        -0.082907         0.297624        -0.021707
 C        -0.744484         1.408018         0.578330
 C         0.329058         2.522165         0.819677
 C        -0.207447         3.376185         1.890453
 C        -1.094249         2.508988         2.671639
 C        -1.195007         1.159662         2.076765
 C        -1.802073         3.515911         1.755140
 O        -2.600331         2.965871         0.733000
 C        -1.950467         2.087255        -0.241409
 H         0.637624        -0.074435         0.507129
 H         1.219351         2.023938         1.095571
 H         0.551548         3.081072        -0.097223
 H         0.268103         4.299787         2.299482
 H        -0.915509         2.406357         3.797297
 H        -0.551470         0.464225         2.529483
 H        -2.199115         0.604751         2.084316
 H        -2.197718         4.486631         2.174926
 H        -2.692184         1.291239        -0.444045
 H        -1.449695         2.322166        -1.140740
