19
Iteration:  4736charge 0 multiplicity 1
 O        -0.098683         0.357720        -0.162473
 C        -0.689074         1.365250         0.645583
 C         0.183466         2.560964         0.526968
 C        -0.286438         3.501615         1.667213
 C        -1.034092         2.528454         2.659218
 C        -0.681200         1.177765         2.185959
 C        -1.839169         3.518043         1.744334
 O        -2.742546         3.076829         0.737005
 C        -2.123162         1.720010         0.273143
 H         0.305262        -0.335818         0.380196
 H         1.206736         2.162153         0.661547
 H         0.074537         3.138960        -0.449615
 H         0.454360         4.187567         2.079529
 H        -1.215484         2.796158         3.794689
 H         0.383724         0.977387         2.540935
 H        -1.318426         0.342491         2.434088
 H        -2.137888         4.593774         2.043656
 H        -2.843645         0.943421         0.482555
 H        -2.054021         1.840130        -0.799655
