19
Iteration:   740
 O        -0.244630         0.333455        -0.078354
 C        -0.683971         1.433466         0.631881
 C         0.380573         2.623889         0.856753
 C        -0.304906         3.464691         1.891735
 C        -1.145328         2.442077         2.631386
 C        -1.003279         1.010668         2.038414
 C        -1.862908         3.505156         1.747946
 O        -2.523227         3.104196         0.575169
 C        -1.946452         1.907021        -0.050382
 H         0.517847         0.020928         0.392341
 H         1.170491         1.960927         1.401142
 H         0.842795         2.929092        -0.117722
 H         0.079007         4.297540         2.409346
 H        -1.116848         2.425409         3.751616
 H         0.001717         0.636737         2.391890
 H        -1.890389         0.338289         2.260261
 H        -2.207935         4.443430         2.344494
 H        -2.786901         1.204985         0.137113
 H        -1.768158         2.162515        -1.108896
