19
Iteration:  1537charge 0 multiplicity 1
 O        -0.314237         0.263523        -0.217048
 C        -0.620273         1.384723         0.666077
 C         0.403427         2.596115         0.875487
 C        -0.307452         3.534880         1.908199
 C        -1.255215         2.468166         2.630998
 C        -0.931284         1.083544         2.163113
 C        -1.845378         3.456443         1.709540
 O        -2.508715         3.064980         0.555174
 C        -1.912405         1.983841         0.006032
 H         0.407386        -0.175571         0.291768
 H         1.456515         2.317796         1.214280
 H         0.697718         2.944094        -0.130127
 H         0.019377         4.405313         2.403293
 H        -1.352486         2.521920         3.767760
 H         0.050394         0.642221         2.644381
 H        -1.730818         0.300255         2.343210
 H        -2.499498         4.281295         2.275603
 H        -2.739873         1.219407         0.047299
 H        -1.756644         2.256876        -0.999761
