19
Iteration:  3780charge 0 multiplicity 1
 O        -0.218794         0.408959        -0.213391
 C        -0.730765         1.424401         0.634699
 C         0.133621         2.589823         0.466723
 C        -0.395493         3.533776         1.504951
 C        -0.943971         2.665707         2.682069
 C        -0.519370         1.256403         2.355634
 C        -1.797668         3.447505         1.797143
 O        -2.738743         2.830408         0.900867
 C        -2.140186         1.653671         0.163215
 H         0.596773         0.006902         0.089942
 H         1.219665         2.476751         0.814951
 H        -0.165262         2.820877        -0.582899
 H         0.155280         4.453621         1.648348
 H        -0.736922         3.135042         3.685337
 H         0.505476         1.193103         2.516124
 H        -0.886160         0.289981         2.812061
 H        -2.226328         4.343546         2.199464
 H        -2.706978         0.772468         0.325590
 H        -1.957872         1.878621        -0.966212
