19
Iteration:  3765
 O        -0.261304         0.303007        -0.225957
 C        -0.648448         1.358250         0.694027
 C         0.187568         2.657914         0.467663
 C        -0.390882         3.606873         1.535114
 C        -0.842435         2.727481         2.738796
 C        -0.588840         1.249064         2.231619
 C        -1.885990         3.424965         1.785662
 O        -2.722140         2.775583         0.877911
 C        -2.128648         1.687444         0.219956
 H         0.725082         0.358098        -0.182683
 H         1.199388         2.310551         0.664628
 H         0.209018         3.208609        -0.523060
 H        -0.018323         4.656420         1.601022
 H        -0.706563         2.953197         3.773478
 H         0.439581         0.894101         2.560884
 H        -1.379158         0.663274         2.629737
 H        -2.428913         4.379650         2.193054
 H        -2.824196         0.854847         0.383285
 H        -2.152833         1.967589        -0.808878
