19
Iteration:  4361
 O        -0.336090         0.244388        -0.140314
 C        -0.702273         1.390474         0.668163
 C         0.161150         2.727046         0.474930
 C        -0.318733         3.582000         1.614157
 C        -0.922301         2.642942         2.695578
 C        -0.631977         1.225039         2.275913
 C        -1.839576         3.399219         1.796182
 O        -2.648226         2.808396         0.832089
 C        -2.021759         1.809390         0.101335
 H         0.345137        -0.094116         0.468528
 H         1.242552         2.612701         0.551925
 H        -0.129919         3.176210        -0.542620
 H         0.182965         4.498314         1.561246
 H        -0.985513         3.049941         3.729837
 H         0.395895         0.846453         2.558465
 H        -1.321869         0.536047         2.627857
 H        -2.388685         4.129372         2.314796
 H        -2.712554         1.046024        -0.020409
 H        -1.815689         2.090987        -1.035228
