19
Iteration:  2009
 O        -0.334069         0.132723        -0.147505
 C        -0.646513         1.376237         0.665403
 C         0.410390         2.628143         0.846424
 C        -0.382683         3.525835         1.864995
 C        -1.223217         2.442211         2.721496
 C        -0.908033         1.042965         2.158561
 C        -1.862894         3.479257         1.777663
 O        -2.486608         3.197292         0.523048
 C        -1.898530         2.002300        -0.013946
 H         0.623128        -0.032421        -0.230763
 H         1.451129         2.217808         1.296545
 H         0.442333         3.032540        -0.189660
 H         0.180693         4.336564         2.198707
 H        -1.554527         2.419575         3.737199
 H        -0.037775         0.519828         2.574722
 H        -1.822316         0.359591         2.270471
 H        -2.306340         4.463719         2.088684
 H        -2.599682         1.182801        -0.282186
 H        -1.349485         2.317846        -0.928616
