19
Iteration:   476charge 0 multiplicity 1
 O        -0.215925         0.346113        -0.118322
 C        -0.701907         1.383216         0.625812
 C         0.307119         2.531110         0.866984
 C        -0.323864         3.468767         1.825798
 C        -1.284954         2.454757         2.669034
 C        -0.963322         1.027880         2.092292
 C        -1.847447         3.539165         1.776038
 O        -2.403479         3.155989         0.596074
 C        -1.948183         1.928876        -0.036760
 H         0.364742        -0.163407         0.419221
 H         1.256394         2.161281         1.138700
 H         0.578076         2.963759        -0.084455
 H         0.174593         4.183723         2.310847
 H        -1.228385         2.480156         3.797958
 H         0.030751         0.660934         2.422759
 H        -1.684154         0.160017         2.232247
 H        -2.337443         4.442179         2.268417
 H        -2.645963         1.058535        -0.045957
 H        -1.684464         2.083515        -1.147161
