19
Iteration:  3215charge 0 multiplicity 1
 O        -0.153091         0.350847        -0.144317
 C        -0.724748         1.437237         0.644980
 C         0.247805         2.584002         0.563340
 C        -0.292856         3.432952         1.666191
 C        -1.010966         2.653390         2.736122
 C        -0.839582         1.115760         2.186723
 C        -1.813919         3.462174         1.812242
 O        -2.641590         2.879513         0.803211
 C        -2.071402         1.876304         0.024484
 H         0.415933        -0.209585         0.400824
 H         1.266214         2.532130         0.712678
 H         0.163148         3.069499        -0.430961
 H        -0.008294         4.547452         1.864090
 H        -0.815485         2.708743         3.860739
 H         0.151042         0.855638         2.638167
 H        -1.683084         0.469863         2.389057
 H        -2.301065         4.398180         2.221537
 H        -2.773510         1.001768        -0.055025
 H        -1.869659         2.253009        -0.957986
