19
Iteration:  1048
 O        -0.278415         0.319739        -0.077721
 C        -0.591354         1.468186         0.654088
 C         0.418891         2.623973         0.775676
 C        -0.334890         3.390062         1.889482
 C        -1.246728         2.465063         2.641534
 C        -1.035633         1.154494         2.018500
 C        -1.846469         3.503868         1.796329
 O        -2.487849         3.014973         0.628577
 C        -1.937595         1.853308        -0.027903
 H         0.600238        -0.026499         0.110119
 H         1.437996         2.377184         1.066411
 H         0.613452         3.286628        -0.106222
 H         0.231655         4.270405         2.322329
 H        -1.150270         2.523919         3.782263
 H        -0.233668         0.786224         2.637196
 H        -1.794427         0.321147         2.069752
 H        -2.425050         4.353178         2.201495
 H        -2.735850         1.020887        -0.030519
 H        -1.638292         2.282982        -1.048743
