19
Iteration:   621
 O        -0.299446         0.383716        -0.189514
 C        -0.650928         1.386132         0.752517
 C         0.339721         2.598286         0.769430
 C        -0.303557         3.405477         1.820854
 C        -1.235775         2.472348         2.761906
 C        -1.036661         1.050812         2.203288
 C        -1.841953         3.447239         1.758495
 O        -2.412320         3.043100         0.573931
 C        -1.868333         1.969233        -0.055061
 H         0.442551        -0.203083         0.140788
 H         1.422006         2.435454         0.960340
 H         0.306336         3.092997        -0.272069
 H         0.237704         4.285450         2.211107
 H        -1.323591         2.713578         3.830846
 H        -0.224899         0.619493         2.736560
 H        -2.060238         0.515247         2.208354
 H        -2.362800         4.398076         2.076195
 H        -2.561320         1.118809        -0.247020
 H        -1.552547         2.300286        -1.141633
