19
Iteration:    95
 O        -0.187143         0.290837        -0.098170
 C        -0.687789         1.384026         0.613153
 C         0.300428         2.586895         0.692482
 C        -0.332631         3.469708         1.785468
 C        -1.074931         2.467564         2.799376
 C        -1.257151         1.118846         2.105560
 C        -1.864134         3.506915         1.928634
 O        -2.444709         3.007858         0.639113
 C        -1.799407         1.943319        -0.146675
 H         0.605897         0.162268         0.438597
 H         1.363959         2.341713         0.984765
 H         0.442109         3.063995        -0.298151
 H         0.388213         4.354431         2.159586
 H        -1.008866         2.421899         3.869261
 H        -0.546103         0.366573         2.609405
 H        -2.339654         0.747090         2.141655
 H        -2.172533         4.464294         2.252797
 H        -2.659839         1.150617        -0.214479
 H        -1.610839         2.476578        -1.142960
