19
Iteration:  3172charge 0 multiplicity 1
 O        -0.331262         0.239790        -0.082479
 C        -0.651410         1.417602         0.597823
 C         0.307365         2.773024         0.632526
 C        -0.405608         3.516517         1.739388
 C        -1.019639         2.499962         2.759061
 C        -0.705375         1.166399         2.155348
 C        -1.883077         3.401226         1.789725
 O        -2.507789         3.029555         0.585598
 C        -2.050706         1.748148         0.201397
 H         0.028838         0.300798        -1.012526
 H         1.316208         2.457378         0.885295
 H         0.158380         3.401995        -0.255815
 H         0.198740         4.503248         2.069276
 H        -1.106716         2.664285         3.901123
 H         0.370035         0.822758         2.404097
 H        -1.449551         0.402041         2.358803
 H        -2.490854         4.270862         2.194614
 H        -2.691156         0.927084         0.574234
 H        -2.242829         1.721470        -0.877288
