19
Iteration:   181
 O        -0.232629         0.295562        -0.134291
 C        -0.678934         1.389928         0.668031
 C         0.250957         2.712664         0.729973
 C        -0.323451         3.455352         1.942499
 C        -1.179996         2.442626         2.760677
 C        -1.024427         1.063828         2.151365
 C        -1.794107         3.494156         1.758625
 O        -2.366249         3.173963         0.513175
 C        -1.962730         1.802383        -0.038552
 H         0.487749        -0.255631         0.309248
 H         1.248128         2.390354         0.886608
 H        -0.036286         3.331928        -0.205840
 H         0.352759         4.114923         2.620776
 H        -1.055197         2.533075         3.797040
 H        -0.384525         0.392446         2.610140
 H        -2.036944         0.500679         2.027190
 H        -2.372658         4.238832         2.182119
 H        -2.762688         1.037767        -0.175070
 H        -1.536267         1.939708        -0.998437
