19
Iteration:  3199charge 0 multiplicity 1
 O        -0.256729         0.259630        -0.131639
 C        -0.650185         1.386687         0.630584
 C         0.247525         2.639200         0.596818
 C        -0.355868         3.590102         1.684039
 C        -1.037152         2.506909         2.677765
 C        -0.692873         1.181628         2.173707
 C        -1.846498         3.443851         1.799373
 O        -2.696953         3.020656         0.754382
 C        -2.009803         1.822823         0.100058
 H         0.679825        -0.035821         0.072735
 H         1.298300         2.131156         0.972220
 H         0.239313         3.118678        -0.404323
 H         0.280063         4.277487         2.155145
 H        -1.217060         2.743356         3.683882
 H         0.253194         0.782521         2.471826
 H        -1.447423         0.402062         2.498723
 H        -2.315484         4.228359         2.322210
 H        -2.692834         0.960352         0.106153
 H        -1.925024         2.114261        -0.998406
