19
Iteration:  1612charge 0 multiplicity 1
 O        -0.051873         0.294909        -0.093474
 C        -0.712548         1.394512         0.657888
 C         0.333137         2.562133         0.762385
 C        -0.338278         3.299951         1.852371
 C        -1.245566         2.461660         2.722336
 C        -1.044115         1.116116         2.035067
 C        -1.823759         3.531792         1.741898
 O        -2.433984         3.198111         0.533330
 C        -2.038740         1.919280         0.082044
 H         0.731980         0.143115         0.453748
 H         1.383997         2.129561         0.791514
 H         0.345126         3.207876        -0.144016
 H         0.196281         4.001588         2.440314
 H        -1.218798         2.573056         3.855146
 H        -0.205043         0.638768         2.387675
 H        -1.857160         0.294252         2.021538
 H        -2.410903         4.425610         2.325374
 H        -2.929060         1.275170         0.366942
 H        -2.053397         2.061724        -0.998696
