19
Iteration:   571charge 0 multiplicity 1
 O        -0.183338         0.290007        -0.028018
 C        -0.641761         1.439126         0.583236
 C         0.398311         2.554711         0.774701
 C        -0.303989         3.373122         1.789672
 C        -1.210224         2.418362         2.684472
 C        -1.085983         1.099188         2.047464
 C        -1.798822         3.555694         1.757582
 O        -2.628145         3.056989         0.730614
 C        -1.884550         1.983625        -0.104589
 H         0.707306         0.122654         0.328846
 H         1.320104         1.946341         1.162254
 H         0.888904         3.084701        -0.055023
 H         0.231596         4.306627         2.373942
 H        -1.230095         2.699423         3.767961
 H        -0.354516         0.504967         2.718633
 H        -2.005762         0.561646         1.975382
 H        -2.213013         4.512073         2.244270
 H        -2.624715         1.215039        -0.356742
 H        -1.653455         2.466142        -1.000093
