19
Iteration:  2449
 O        -0.220379         0.214395        -0.057593
 C        -0.574470         1.460379         0.543644
 C         0.444797         2.565937         0.755783
 C        -0.318828         3.491227         1.765974
 C        -1.084343         2.589585         2.682558
 C        -0.871796         1.191229         2.070749
 C        -1.917670         3.500651         1.780124
 O        -2.625141         3.034204         0.697375
 C        -2.067841         1.803253         0.068630
 H        -0.299101         0.289093        -1.052843
 H         1.170689         2.011177         1.430698
 H         0.874223         2.953661        -0.124592
 H         0.255711         4.227016         2.324182
 H        -1.013872         2.805237         3.805532
 H        -0.029156         0.624551         2.561833
 H        -1.786586         0.544000         2.228378
 H        -2.369961         4.497699         2.131694
 H        -2.764129         1.020467         0.306063
 H        -2.062094         1.882376        -1.062242
