19
Iteration:   517
 O        -0.275464         0.314828        -0.133366
 C        -0.652173         1.428820         0.662139
 C         0.360705         2.553138         0.836610
 C        -0.301157         3.425102         1.869455
 C        -1.138957         2.486572         2.740331
 C        -1.103390         1.095894         2.058112
 C        -1.849892         3.513971         1.802667
 O        -2.509496         3.011196         0.579250
 C        -1.850362         1.957941        -0.091337
 H         0.593394        -0.046197         0.191864
 H         1.428436         2.253324         1.164013
 H         0.490821         3.112668        -0.118607
 H         0.273408         4.258400         2.394224
 H        -1.151680         2.702727         3.843633
 H        -0.323398         0.535492         2.653584
 H        -1.927527         0.478256         2.176733
 H        -2.371398         4.512207         2.063967
 H        -2.660975         1.173284        -0.106293
 H        -1.607912         2.324195        -1.145097
