19
Iteration:  1132charge 0 multiplicity 1
 O        -0.206758         0.261065        -0.038591
 C        -0.636035         1.499558         0.558676
 C         0.404769         2.682993         0.715846
 C        -0.214814         3.463576         2.012546
 C        -1.130687         2.431171         2.706188
 C        -1.080714         1.148970         2.060830
 C        -1.901182         3.458196         1.824081
 O        -2.575503         3.042565         0.572164
 C        -1.974631         1.841207        -0.128968
 H         0.531815        -0.112260         0.519290
 H         1.495635         2.380012         0.804426
 H         0.256458         3.280604        -0.217278
 H         0.517231         4.148261         2.725946
 H        -1.222583         2.663981         3.781987
 H        -0.166606         0.583672         2.504465
 H        -1.970918         0.569069         2.088359
 H        -2.303165         4.369815         2.221907
 H        -2.533751         0.947236        -0.018855
 H        -1.926816         2.064025        -1.149602
