19
Iteration:  1836
 O        -0.079487         0.408739        -0.121010
 C        -0.726092         1.426250         0.600682
 C         0.252295         2.544069         0.718466
 C        -0.240686         3.336215         1.951148
 C        -1.229249         2.475891         2.703507
 C        -1.140600         1.125980         2.122489
 C        -1.708339         3.524706         1.801912
 O        -2.375898         3.100605         0.542735
 C        -2.050651         1.835986        -0.015371
 H         0.443856        -0.136407         0.488836
 H         1.235465         2.033246         1.046364
 H         0.355776         3.311688        -0.102770
 H         0.185146         4.203065         2.464051
 H        -1.283340         2.696274         3.793038
 H        -0.450494         0.383691         2.575791
 H        -2.056529         0.603154         2.202565
 H        -2.420244         4.477035         2.023928
 H        -2.949905         1.102995         0.036438
 H        -1.876751         2.011646        -1.084587
