19
Iteration:    58charge 0 multiplicity 1
 O        -0.180795         0.246626        -0.058235
 C        -0.720938         1.433437         0.565458
 C         0.462960         2.539034         0.798688
 C        -0.154131         3.454781         1.857091
 C        -1.284923         2.473336         2.674930
 C        -1.060141         1.105894         2.076605
 C        -1.781038         3.515979         1.803719
 O        -2.631684         3.036144         0.715306
 C        -1.959581         2.027359        -0.141636
 H         0.689961        -0.003893         0.372499
 H         1.373175         2.076311         1.005566
 H         0.561423         3.086199        -0.211472
 H         0.376113         4.192427         2.350454
 H        -1.600053         2.527540         3.756228
 H        -0.175833         0.726621         2.527369
 H        -1.885070         0.321866         2.314766
 H        -2.335388         4.470686         2.046234
 H        -2.610647         1.112838        -0.384262
 H        -1.659776         2.427187        -1.114535
