19
Iteration:  1902
 O        -0.391870         0.272850        -0.101294
 C        -0.701080         1.417751         0.633692
 C         0.439026         2.655749         0.820981
 C        -0.261447         3.466422         1.969756
 C        -1.213184         2.508885         2.781460
 C        -1.045754         1.105513         2.130342
 C        -1.772183         3.490030         1.729131
 O        -2.524565         2.910476         0.586023
 C        -1.828673         1.999203        -0.205005
 H         0.525358        -0.055057        -0.081037
 H         1.360983         2.183449         1.115466
 H         0.594425         3.254979        -0.106120
 H         0.164524         4.345387         2.429115
 H        -1.384694         2.731294         3.837517
 H        -0.255111         0.503310         2.669683
 H        -1.953659         0.566989         2.180477
 H        -2.167827         4.430947         2.292060
 H        -2.515191         1.134990        -0.490812
 H        -1.349117         2.303062        -1.134968
