19
Iteration:  2729charge 0 multiplicity 1
 O        -0.128169         0.294912        -0.003401
 C        -0.713060         1.325312         0.741123
 C         0.059903         2.703666         0.552434
 C        -0.297981         3.513650         1.799252
 C        -1.021330         2.507360         2.653774
 C        -0.767961         1.068811         2.144609
 C        -1.800471         3.485493         1.824992
 O        -2.442660         3.153893         0.510474
 C        -2.101609         1.732849         0.164522
 H        -0.662358         0.215967        -0.801573
 H         1.065345         2.459434         0.574905
 H        -0.417480         3.185898        -0.352403
 H         0.243583         4.364158         2.223955
 H        -0.881657         2.698639         3.749678
 H         0.230042         0.802227         2.468866
 H        -1.517322         0.310891         2.426607
 H        -2.533512         4.058144         2.401242
 H        -2.855496         0.998524         0.417571
 H        -2.048563         1.742647        -0.994639
