19
Iteration:  2600charge 0 multiplicity 1
 O        -0.124281         0.326434        -0.048757
 C        -0.635140         1.501390         0.602539
 C         0.383108         2.554389         0.602575
 C        -0.281154         3.417475         1.634095
 C        -0.966411         2.662685         2.722401
 C        -1.022328         1.243807         2.077882
 C        -1.849590         3.478546         1.775018
 O        -2.707760         2.782830         0.912652
 C        -1.961153         1.904108        -0.000106
 H        -0.832921        -0.348204         0.115418
 H         1.378370         2.109149         0.893486
 H         0.660265         3.039357        -0.329962
 H         0.152464         4.419671         1.886738
 H        -0.848317         2.818679         3.868832
 H        -0.331981         0.480754         2.445406
 H        -2.040626         0.777295         2.012495
 H        -2.493696         4.322229         2.208243
 H        -2.693859         1.065902        -0.188574
 H        -1.872893         2.473940        -0.905321
