19
Iteration:  3457
 O        -0.129485         0.313072        -0.153712
 C        -0.725601         1.426121         0.671233
 C         0.166251         2.631144         0.493904
 C        -0.364948         3.558566         1.561110
 C        -0.874565         2.656195         2.673107
 C        -0.786193         1.192331         2.193819
 C        -1.806143         3.452859         1.868220
 O        -2.741110         2.803813         0.938789
 C        -2.048303         1.814992         0.055701
 H         0.667096        -0.174860         0.186190
 H         1.218453         2.435148         0.834149
 H        -0.001642         2.918560        -0.591429
 H         0.002359         4.556679         1.640794
 H        -0.745821         2.940168         3.747520
 H        -0.044480         0.598771         2.554902
 H        -1.628566         0.689179         2.475811
 H        -2.239566         4.440663         2.224120
 H        -2.521030         0.886904        -0.111908
 H        -1.744990         2.106376        -0.925963
