19
Iteration:  4720
 O        -0.294232         0.242425        -0.158825
 C        -0.615978         1.410902         0.669476
 C         0.249364         2.725634         0.567070
 C        -0.329651         3.539616         1.679515
 C        -0.998854         2.611418         2.677329
 C        -0.704281         1.099265         2.150423
 C        -1.849878         3.528121         1.774390
 O        -2.618564         2.956182         0.723190
 C        -2.104306         1.763309         0.179809
 H         0.425990        -0.198165         0.346617
 H         1.363079         2.598665         0.762433
 H         0.124961         3.123441        -0.441609
 H         0.051342         4.526970         1.981580
 H        -0.869352         2.767206         3.691364
 H         0.207065         0.696297         2.591217
 H        -1.498110         0.342898         2.441993
 H        -2.410076         4.219212         2.330857
 H        -2.718830         0.893459         0.614147
 H        -2.068170         1.773175        -0.936823
