19
Iteration:  2940charge 0 multiplicity 1
 O        -0.242220         0.279816        -0.125369
 C        -0.647197         1.396360         0.636011
 C         0.213994         2.647025         0.684839
 C        -0.326331         3.516356         1.795178
 C        -1.151940         2.471274         2.696472
 C        -0.627443         1.089521         2.096963
 C        -1.820485         3.460165         1.752693
 O        -2.449045         3.133822         0.505923
 C        -2.211128         1.736956         0.293572
 H         0.098384         0.684367        -0.932156
 H         1.184028         2.433610         1.110011
 H         0.246226         3.266013        -0.285725
 H         0.363434         4.322676         2.138527
 H        -1.530061         2.722513         3.699607
 H         0.364897         0.869786         2.513820
 H        -1.340918         0.296550         2.378665
 H        -2.287512         4.445571         2.218221
 H        -2.872327         1.289367         1.048670
 H        -2.549567         1.296476        -0.661124
