19
Iteration:  2242charge 0 multiplicity 1
 O        -0.294382         0.274168        -0.204862
 C        -0.658284         1.383128         0.722263
 C         0.359622         2.566157         0.715936
 C        -0.284262         3.475225         1.831673
 C        -1.179942         2.545066         2.793757
 C        -1.007050         1.077567         2.345751
 C        -1.785998         3.384899         1.749191
 O        -2.429453         3.123525         0.526770
 C        -1.999874         1.874323        -0.018764
 H         0.386369         0.700566        -0.762667
 H         1.432149         2.373069         0.980592
 H         0.333664         3.057451        -0.293437
 H         0.029510         4.506114         2.058377
 H        -1.309658         2.862484         3.821196
 H        -0.003323         0.776152         2.688121
 H        -1.810312         0.368533         2.484163
 H        -2.427688         4.142482         2.204966
 H        -2.807075         1.076352        -0.084547
 H        -1.805706         2.151387        -1.130826
