19
Iteration:  1640
 O        -0.349302         0.328695        -0.236013
 C        -0.710444         1.398928         0.731858
 C         0.297683         2.645963         0.876284
 C        -0.306789         3.537017         1.903611
 C        -1.181076         2.475275         2.768462
 C        -0.968033         1.051908         2.220896
 C        -1.758990         3.491119         1.709959
 O        -2.428107         3.035427         0.492317
 C        -1.869414         1.888331        -0.084519
 H         0.463780        -0.095947         0.016976
 H         1.175131         2.098649         1.180460
 H         0.468538         3.177293        -0.071657
 H         0.248280         4.342019         2.391997
 H        -1.411399         2.627048         3.769991
 H        -0.068867         0.414816         2.651300
 H        -1.849155         0.456191         2.195782
 H        -2.455265         4.011821         2.227521
 H        -2.711763         1.213686        -0.030068
 H        -1.690729         2.131073        -1.167045
