19
Iteration:  3880charge 0 multiplicity 1
 O        -0.070682         0.416579        -0.210416
 C        -0.673517         1.385691         0.708026
 C         0.195290         2.605745         0.480389
 C        -0.353956         3.553669         1.479765
 C        -0.923813         2.706100         2.623758
 C        -0.565538         1.236118         2.257914
 C        -1.879019         3.450782         1.801720
 O        -2.741491         2.855969         0.942246
 C        -2.203394         1.645100         0.239567
 H        -0.771464        -0.284359        -0.256496
 H         1.353569         2.213556         0.484927
 H        -0.049489         2.824448        -0.584203
 H         0.145893         4.490943         1.811159
 H        -0.832866         2.895866         3.697366
 H         0.442656         1.180959         2.546685
 H        -1.277135         0.381104         2.617427
 H        -2.350955         4.285134         2.167955
 H        -2.849098         0.826316         0.448826
 H        -2.200330         1.888245        -0.936572
