19
Iteration:  4012charge 0 multiplicity 1
 O        -0.197948         0.317909        -0.202561
 C        -0.671169         1.371219         0.670924
 C         0.165859         2.716564         0.406736
 C        -0.267254         3.625801         1.580510
 C        -0.914833         2.714761         2.691502
 C        -0.629322         1.268806         2.288910
 C        -1.848987         3.436386         1.785934
 O        -2.730462         2.741717         0.897834
 C        -2.040450         1.668034         0.183671
 H        -1.017387        -0.245476        -0.159388
 H         1.193118         2.383257         0.407554
 H        -0.121922         3.202884        -0.499529
 H         0.225085         4.551261         1.971991
 H        -0.957475         3.060582         3.708848
 H         0.270294         0.810705         2.633135
 H        -1.401293         0.557613         2.778534
 H        -2.331850         4.379473         2.178432
 H        -2.668720         0.782765         0.247411
 H        -2.090887         1.996861        -0.892778
