19
Iteration:   480charge 0 multiplicity 1
 O        -0.217800         0.331176        -0.115792
 C        -0.687575         1.400919         0.644605
 C         0.330750         2.514046         0.845551
 C        -0.334293         3.492781         1.791358
 C        -1.313266         2.457257         2.692596
 C        -0.951234         0.984013         2.091931
 C        -1.812224         3.540655         1.794542
 O        -2.440955         3.139927         0.579802
 C        -1.963262         1.974761        -0.045679
 H         0.422506        -0.188027         0.457856
 H         1.294535         2.105630         1.302768
 H         0.613739         3.070315        -0.120344
 H         0.320309         4.200725         2.446197
 H        -1.351302         2.459081         3.744654
 H         0.067268         0.811082         2.468615
 H        -1.665947         0.096152         2.194450
 H        -2.247722         4.381939         2.199326
 H        -2.575616         1.098489        -0.046363
 H        -1.803794         2.122028        -1.065295
