19
Iteration:  1802
 O        -0.236225         0.257729        -0.152343
 C        -0.640309         1.378777         0.656319
 C         0.254855         2.638008         0.760170
 C        -0.283543         3.411460         1.973381
 C        -1.201158         2.437125         2.678783
 C        -1.048303         1.061909         2.127775
 C        -1.821219         3.526577         1.753774
 O        -2.372404         3.186113         0.520215
 C        -1.933635         1.897101         0.029900
 H         0.514096        -0.246338         0.255446
 H         1.340319         2.394146         0.850792
 H         0.247711         3.222686        -0.209540
 H         0.127095         4.341867         2.421869
 H        -1.374235         2.557055         3.761683
 H        -0.393342         0.443428         2.727369
 H        -2.030715         0.642289         1.989194
 H        -2.552605         4.269959         2.268910
 H        -2.704085         1.048254         0.039443
 H        -1.584580         2.077336        -0.965760
