19
Iteration:    39
 O        -0.316694         0.325331        -0.205159
 C        -0.618766         1.399272         0.638192
 C         0.360716         2.518014         0.834809
 C        -0.370494         3.351097         1.851742
 C        -1.194672         2.533833         2.741807
 C        -0.988151         1.169729         2.128347
 C        -1.831053         3.516751         1.724081
 O        -2.506435         3.004086         0.645291
 C        -1.849836         1.974162        -0.039556
 H         0.532674        -0.083112         0.149978
 H         1.190387         2.126489         1.457685
 H         0.682366         3.108188        -0.079575
 H         0.161401         4.296793         2.244411
 H        -1.151797         2.733167         3.826959
 H        -0.236634         0.608190         2.749714
 H        -1.920652         0.447905         2.119400
 H        -2.204751         4.512128         2.120488
 H        -2.648421         1.151106        -0.300379
 H        -1.567585         2.332699        -1.096573
