19
Iteration:  1623charge 0 multiplicity 1
 O        -0.175010         0.364093        -0.115142
 C        -0.686719         1.420371         0.608380
 C         0.327452         2.556472         0.767590
 C        -0.292001         3.382928         1.911751
 C        -1.230448         2.467201         2.688114
 C        -1.010961         1.086900         2.148368
 C        -1.826429         3.450405         1.779751
 O        -2.411352         3.170760         0.534247
 C        -2.034796         1.859694        -0.017795
 H         0.637032         0.081090         0.292574
 H         1.312643         2.196797         1.182786
 H         0.404982         3.104226        -0.196592
 H         0.230603         4.231403         2.320518
 H        -1.428577         2.573254         3.800507
 H        -0.149845         0.705936         2.601712
 H        -1.897338         0.364884         2.286754
 H        -2.236115         4.501724         2.163526
 H        -2.831842         1.053278         0.084014
 H        -1.845028         2.006613        -1.090209
