19
Iteration:  3151
 O        -0.125668         0.328291        -0.099667
 C        -0.657325         1.398200         0.722302
 C         0.139896         2.724338         0.539725
 C        -0.272008         3.509236         1.849871
 C        -1.073055         2.500461         2.650865
 C        -0.759061         1.128372         2.166695
 C        -1.822952         3.465227         1.799664
 O        -2.466554         3.031309         0.583951
 C        -2.162732         1.717010         0.177709
 H        -0.791753         0.249029        -0.793953
 H         1.206868         2.356214         0.652792
 H        -0.104447         3.147768        -0.442397
 H         0.323368         4.493613         2.112280
 H        -1.118507         2.716581         3.767720
 H         0.214685         0.811454         2.678576
 H        -1.528059         0.376728         2.276308
 H        -2.508891         4.212281         2.303023
 H        -2.916020         1.012463         0.559492
 H        -2.235399         1.616825        -0.949212
