19
Iteration:  4767
 O        -0.046094         0.355069        -0.087190
 C        -0.734224         1.381239         0.609673
 C         0.117912         2.675413         0.526492
 C        -0.328810         3.599535         1.638245
 C        -0.892835         2.576058         2.725580
 C        -0.803860         1.151603         2.185615
 C        -1.828553         3.461697         1.810288
 O        -2.530894         2.993262         0.689492
 C        -2.196597         1.655995         0.211952
 H        -0.689440        -0.371736        -0.252524
 H         1.225414         2.369907         0.626956
 H         0.042744         3.206466        -0.503988
 H         0.250177         4.410109         2.038522
 H        -0.901483         2.786452         3.875925
 H         0.128600         0.595797         2.541044
 H        -1.539177         0.475537         2.404572
 H        -2.341810         4.420498         2.093552
 H        -2.927669         0.874687         0.682683
 H        -2.235585         1.704681        -0.844310
