19
Iteration:  1766
 O        -0.324032         0.248984        -0.110089
 C        -0.692685         1.446174         0.640042
 C         0.413269         2.475690         0.877855
 C        -0.329730         3.418235         1.914790
 C        -1.279596         2.456448         2.743937
 C        -0.860866         1.147991         2.136778
 C        -1.809830         3.411142         1.724956
 O        -2.503559         3.156587         0.558388
 C        -1.936687         2.024760        -0.153449
 H         0.605427         0.104262         0.170123
 H         1.167737         1.927029         1.306140
 H         0.706453         3.021196        -0.020222
 H         0.142180         4.426128         2.073322
 H        -1.434873         2.515462         3.825902
 H         0.061188         0.862823         2.584203
 H        -1.571433         0.249175         2.347923
 H        -2.262817         4.214787         2.200662
 H        -2.765762         1.259458        -0.341608
 H        -1.694172         2.426548        -1.149375
