19
Iteration:  1787
 O        -0.303268         0.288012        -0.069821
 C        -0.700983         1.408834         0.681404
 C         0.320849         2.576025         0.779009
 C        -0.362260         3.435443         1.843166
 C        -1.221383         2.392138         2.717000
 C        -0.922790         1.022554         2.146045
 C        -1.853676         3.451674         1.815572
 O        -2.404482         3.212549         0.489006
 C        -1.905665         1.991939        -0.095532
 H         0.550573        -0.026956         0.311260
 H         1.234150         2.266616         1.225709
 H         0.492421         3.124773        -0.122302
 H         0.293617         4.113925         2.441727
 H        -1.364761         2.606591         3.778864
 H         0.068184         0.659444         2.514644
 H        -1.702840         0.196621         2.390211
 H        -2.335870         4.290560         2.180275
 H        -2.787846         1.333497        -0.114955
 H        -1.611154         2.147419        -1.167135
