19
Iteration:  2793charge 0 multiplicity 1
 O        -0.130609         0.272330        -0.090292
 C        -0.649529         1.367788         0.644523
 C         0.389324         2.512341         0.702111
 C        -0.296351         3.484346         1.571467
 C        -0.989917         2.600687         2.643108
 C        -0.853163         1.187928         2.188774
 C        -1.820040         3.475449         1.701885
 O        -2.829012         2.879024         0.910853
 C        -2.119288         1.980404         0.024015
 H         0.437154         0.567801        -0.845338
 H         1.346714         2.225496         1.161460
 H         0.731388         2.893246        -0.376724
 H         0.064679         4.456347         1.866909
 H        -0.833267         2.956575         3.688933
 H         0.084031         0.737259         2.623300
 H        -1.738351         0.545056         2.397457
 H        -2.106751         4.343700         2.348991
 H        -2.861059         1.123972         0.038461
 H        -1.947588         2.469818        -0.941435
