19
Iteration:  2955charge 0 multiplicity 1
 O        -0.148527         0.230961        -0.070889
 C        -0.741020         1.375695         0.638054
 C         0.214995         2.628455         0.656658
 C        -0.365622         3.461593         1.796895
 C        -1.029489         2.466566         2.697928
 C        -0.656661         1.118773         2.192821
 C        -1.875964         3.447607         1.774391
 O        -2.528701         3.207668         0.499543
 C        -2.184637         1.838916         0.214041
 H        -0.030424         0.437019        -1.013830
 H         1.282895         2.208871         0.690951
 H         0.181961         3.107967        -0.263520
 H         0.047244         4.384665         2.095540
 H        -1.005705         2.532128         3.773230
 H         0.417750         0.981896         2.347432
 H        -1.187701         0.245403         2.537138
 H        -2.408504         4.130154         2.322037
 H        -2.828938         1.121650         0.682802
 H        -2.206083         1.842789        -0.886181
