19
Iteration:  1947
 O        -0.008283         0.264964        -0.103558
 C        -0.630854         1.397338         0.644813
 C         0.371517         2.421250         0.791177
 C        -0.303432         3.472983         1.722896
 C        -1.204258         2.491960         2.678642
 C        -1.235661         1.104518         2.049546
 C        -1.821711         3.574820         1.799467
 O        -2.603222         3.045055         0.777790
 C        -1.923994         2.038874        -0.110485
 H         0.591445        -0.020661         0.610192
 H         1.208322         2.232014         1.300455
 H         0.737567         2.761982        -0.177325
 H         0.492423         3.942605         2.254466
 H        -1.139883         2.510387         3.742331
 H        -0.600208         0.378805         2.605514
 H        -2.224810         0.787917         1.977251
 H        -2.190311         4.519957         2.165725
 H        -2.722740         1.320704        -0.434186
 H        -1.621872         2.644415        -0.953349
