19
Iteration:  2363
 O        -0.262584         0.271662        -0.054792
 C        -0.614837         1.458165         0.629447
 C         0.450420         2.569415         0.740070
 C        -0.274506         3.461733         1.740407
 C        -1.122953         2.518234         2.604276
 C        -1.047583         1.112629         2.070733
 C        -1.810197         3.557823         1.769551
 O        -2.674524         2.972106         0.748771
 C        -1.944023         1.884748         0.050933
 H         0.653571         0.398024        -0.340337
 H         1.315525         2.329452         1.365704
 H         0.831603         2.938017        -0.230434
 H         0.309518         4.224852         2.160377
 H        -1.019756         2.602948         3.689561
 H        -0.162899         0.640240         2.508802
 H        -1.927820         0.559614         2.002984
 H        -2.245506         4.500260         2.188941
 H        -2.695477         1.154553         0.154115
 H        -1.944664         2.054857        -1.071964
