19
Iteration:  4106charge 0 multiplicity 1
 O        -0.181908         0.280811        -0.141227
 C        -0.721571         1.352814         0.739206
 C         0.146412         2.660870         0.480018
 C        -0.388272         3.595412         1.493941
 C        -0.820276         2.708521         2.639492
 C        -0.666816         1.222859         2.241879
 C        -1.843955         3.436888         1.778726
 O        -2.714565         2.836840         0.883126
 C        -2.057957         1.674448         0.253036
 H         0.011953         0.709824        -0.980780
 H         1.263209         2.556071         0.610392
 H        -0.174476         3.015795        -0.559990
 H         0.126783         4.581881         1.750918
 H        -0.851606         3.112078         3.641191
 H         0.309820         0.791833         2.435032
 H        -1.345438         0.631235         2.734032
 H        -2.320814         4.235180         2.282323
 H        -2.733491         0.834491         0.357425
 H        -1.950840         1.875032        -0.852269
