19
Iteration:  2143charge 0 multiplicity 1
 O        -0.231229         0.295882        -0.245163
 C        -0.643230         1.421441         0.665567
 C         0.419317         2.536962         0.814955
 C        -0.287376         3.463936         1.798660
 C        -1.191039         2.544559         2.788235
 C        -1.154099         1.161113         2.129419
 C        -1.766851         3.496083         1.766018
 O        -2.527834         2.975585         0.662104
 C        -1.830927         1.943661        -0.055866
 H        -0.308254        -0.485838         0.310485
 H         1.368910         2.134435         1.287183
 H         0.595401         3.045640        -0.178705
 H         0.261343         4.434636         2.139226
 H        -1.381874         2.818169         3.867172
 H        -0.538208         0.573423         2.814087
 H        -2.053554         0.587030         2.021301
 H        -2.353561         4.413699         2.069276
 H        -2.605148         1.143844        -0.060241
 H        -1.618409         2.238422        -1.038065
