19
Iteration:  1703
 O        -0.068724         0.298106        -0.051785
 C        -0.735088         1.433515         0.583944
 C         0.305431         2.496138         0.790878
 C        -0.222965         3.377813         1.894568
 C        -1.084413         2.510077         2.721918
 C        -1.243542         1.169981         2.087616
 C        -1.788167         3.527503         1.770082
 O        -2.590493         2.957535         0.732817
 C        -1.937606         2.051724        -0.253874
 H         0.620468        -0.017989         0.533261
 H         1.345835         2.054078         1.068590
 H         0.607288         3.088341        -0.123927
 H         0.330533         4.252884         2.318482
 H        -0.875599         2.569585         3.784409
 H        -0.598580         0.452983         2.551830
 H        -2.208809         0.757638         2.076713
 H        -2.270089         4.326474         2.132991
 H        -2.698682         1.280448        -0.432607
 H        -1.466050         2.402201        -1.153902
