19
Iteration:  2102charge 0 multiplicity 1
 O        -0.292269         0.272223        -0.024210
 C        -0.685816         1.432820         0.641878
 C         0.321790         2.528323         0.793471
 C        -0.341841         3.480152         1.761932
 C        -1.276658         2.401784         2.685991
 C        -0.933495         1.041053         2.146918
 C        -1.791168         3.458513         1.768492
 O        -2.435929         3.148508         0.584540
 C        -1.917958         2.035709        -0.087352
 H         0.539270        -0.057851         0.396533
 H         1.219010         2.157344         1.225552
 H         0.579339         3.129334        -0.156572
 H         0.285652         4.366861         2.192447
 H        -1.688363         2.379812         3.758323
 H         0.116306         0.704350         2.437781
 H        -1.715385         0.290552         2.347324
 H        -2.143823         4.392089         2.363250
 H        -2.635388         1.171260        -0.121204
 H        -1.642964         2.257310        -1.156293
