19
Iteration:  2426
 O        -0.158502         0.219854        -0.013345
 C        -0.657546         1.391727         0.686017
 C         0.339397         2.659791         0.694525
 C        -0.272185         3.526575         1.725208
 C        -1.099212         2.531760         2.676512
 C        -0.934659         1.100287         2.097916
 C        -1.790814         3.451583         1.758254
 O        -2.636450         2.960800         0.744736
 C        -1.969573         2.022488        -0.046637
 H        -0.904397        -0.304078        -0.341857
 H         1.344290         2.297700         1.060008
 H         0.340662         3.042760        -0.280769
 H         0.196799         4.426202         1.956834
 H        -1.237730         2.612735         3.734384
 H        -0.058639         0.546823         2.542023
 H        -1.878884         0.511773         2.334997
 H        -2.282756         4.324384         2.213922
 H        -2.725000         1.231876        -0.140950
 H        -1.687546         2.267088        -1.082379
