19
Iteration:  3679charge 0 multiplicity 1
 O        -0.200491         0.375254        -0.190742
 C        -0.612688         1.433016         0.632835
 C         0.207318         2.618946         0.520137
 C        -0.430694         3.588706         1.541349
 C        -0.891248         2.681562         2.679426
 C        -0.695809         1.252672         2.179067
 C        -1.849445         3.386506         1.778999
 O        -2.721704         2.793511         0.942482
 C        -2.052312         1.748553         0.181584
 H        -0.269279        -0.474587         0.293853
 H         1.266128         2.427121         0.760827
 H         0.352239         3.077616        -0.483749
 H         0.145414         4.508632         1.609076
 H        -0.738816         2.920460         3.693507
 H         0.191005         0.802514         2.516939
 H        -1.484152         0.551709         2.484437
 H        -2.329016         4.261271         2.335909
 H        -2.535780         0.827819         0.385648
 H        -2.182733         1.936628        -0.989021
