19
Iteration:  2478charge 0 multiplicity 1
 O        -0.223129         0.360318        -0.159565
 C        -0.678084         1.358746         0.743915
 C         0.237432         2.646756         0.646942
 C        -0.286807         3.507782         1.758835
 C        -1.131076         2.519959         2.728462
 C        -0.896618         1.053972         2.281107
 C        -1.712669         3.460467         1.699827
 O        -2.513481         3.106223         0.616642
 C        -2.086231         1.738277         0.068283
 H         0.735098         0.435840        -0.358828
 H         1.249636         2.267602         0.785897
 H         0.041831         3.027646        -0.377390
 H         0.219038         4.334477         2.134526
 H        -1.344162         2.762915         3.697721
 H         0.034931         0.671919         2.674958
 H        -1.783582         0.429656         2.532201
 H        -2.141000         4.357000         2.090666
 H        -3.019341         1.076993         0.116241
 H        -1.792410         1.800843        -0.944238
