19
Iteration:  1158charge 0 multiplicity 1
 O        -0.230928         0.314904        -0.103087
 C        -0.662643         1.420443         0.619829
 C         0.311333         2.622896         0.782604
 C        -0.378440         3.488401         1.851992
 C        -1.180872         2.436676         2.711105
 C        -0.996745         1.138624         2.084490
 C        -1.815161         3.425568         1.780959
 O        -2.455491         3.031816         0.671168
 C        -1.926481         1.896690        -0.090164
 H         0.533789        -0.120225         0.340739
 H         1.312517         2.343947         1.112777
 H         0.456127         3.196827        -0.169886
 H         0.081149         4.372609         2.164882
 H        -1.350032         2.699152         3.758832
 H        -0.170644         0.584634         2.535142
 H        -1.940364         0.472524         2.160360
 H        -2.106717         4.432229         2.193928
 H        -2.675627         1.093629        -0.202645
 H        -1.605379         2.283489        -1.081372
