19
Iteration:  3258charge 0 multiplicity 1
 O        -0.064253         0.261272        -0.029647
 C        -0.610605         1.414076         0.557830
 C         0.335921         2.670786         0.555649
 C        -0.346509         3.580613         1.612233
 C        -0.922512         2.594951         2.678325
 C        -0.988342         1.206837         2.071826
 C        -1.852448         3.446853         1.864595
 O        -2.709985         2.790719         0.969721
 C        -2.023880         1.883274         0.018988
 H        -0.796656        -0.287449        -0.327415
 H         1.384779         2.266288         0.641162
 H         0.366573         3.105259        -0.508393
 H         0.154172         4.526446         2.063080
 H        -0.725358         2.901392         3.756457
 H        -0.254448         0.474462         2.484390
 H        -2.034144         0.870804         2.145296
 H        -2.292980         4.439903         2.150492
 H        -2.727007         0.960211        -0.023840
 H        -2.013541         2.393644        -0.928824
