19
Iteration:  2465
 O        -0.260992         0.322382        -0.121083
 C        -0.721289         1.421725         0.669137
 C         0.343795         2.537829         0.749024
 C        -0.268832         3.486094         1.750814
 C        -1.120612         2.550641         2.684094
 C        -0.902203         1.157106         2.146407
 C        -1.809686         3.503334         1.738371
 O        -2.533663         3.000114         0.611473
 C        -2.033673         1.797648         0.132541
 H         0.434186         0.746796        -0.656725
 H         1.326548         2.238320         1.023841
 H         0.553348         3.102955        -0.236581
 H         0.244447         4.428235         2.006200
 H        -1.202275         2.657054         3.743094
 H        -0.004647         0.750077         2.586358
 H        -1.659618         0.411896         2.333361
 H        -2.331370         4.283991         2.202494
 H        -2.625418         0.912876         0.465785
 H        -2.108953         1.912291        -0.965832
