19
Iteration:  4894
 O        -0.233192         0.206912        -0.086780
 C        -0.629441         1.451964         0.604560
 C         0.216364         2.747710         0.509721
 C        -0.316449         3.534579         1.611690
 C        -0.910556         2.670965         2.740505
 C        -0.813379         1.226108         2.196384
 C        -1.774868         3.436769         1.774992
 O        -2.688540         2.773124         0.920264
 C        -2.068705         1.818280         0.005425
 H         0.096374        -0.384633         0.597927
 H         1.264724         2.503982         0.496802
 H         0.035981         3.286327        -0.415251
 H         0.273649         4.399900         1.911819
 H        -0.926461         3.043543         3.792653
 H         0.115358         0.766125         2.391670
 H        -1.720119         0.493872         2.353255
 H        -2.316757         4.387045         2.048574
 H        -2.683317         0.969098         0.003143
 H        -2.063572         2.267496        -1.035183
