19
Iteration:  4067charge 0 multiplicity 1
 O        -0.070694         0.233956         0.033604
 C        -0.639605         1.427514         0.598701
 C         0.160476         2.768191         0.407557
 C        -0.342508         3.547124         1.580237
 C        -0.838771         2.673260         2.674608
 C        -0.734578         1.278110         2.070467
 C        -1.801471         3.464518         1.783274
 O        -2.696560         2.797836         0.920119
 C        -2.195211         1.664448         0.223806
 H        -0.755911         0.078958        -0.657251
 H         1.213486         2.531544         0.388884
 H        -0.140737         3.339328        -0.438791
 H         0.161812         4.508356         1.680302
 H        -0.758092         2.831484         3.753081
 H         0.305365         0.758188         2.302148
 H        -1.700316         0.660551         2.459142
 H        -2.403092         4.299222         2.420619
 H        -2.816291         0.709505         0.436022
 H        -2.354750         1.947320        -0.860597
