19
Iteration:  3585charge 0 multiplicity 1
 O        -0.072055         0.274842         0.045220
 C        -0.714694         1.407494         0.595738
 C         0.077928         2.754032         0.423842
 C        -0.303688         3.576424         1.672812
 C        -0.938742         2.580965         2.728831
 C        -0.711783         1.178415         2.049509
 C        -1.785883         3.484216         1.815234
 O        -2.607194         2.925077         0.783710
 C        -2.158076         1.628859         0.227314
 H        -0.186551         0.369088        -0.905965
 H         1.113136         2.528237         0.188011
 H        -0.150572         3.232420        -0.512392
 H         0.122051         4.505389         2.013320
 H        -0.962343         2.692190         3.794111
 H         0.377635         0.842408         2.340229
 H        -1.604097         0.468272         2.270203
 H        -2.421609         4.322217         2.276061
 H        -2.965262         0.965495         0.753475
 H        -2.260671         1.605245        -0.833487
