19
Iteration:  3478
 O        -0.110869         0.280492        -0.064991
 C        -0.644531         1.470219         0.503251
 C         0.255786         2.767316         0.425260
 C        -0.352376         3.590154         1.609729
 C        -0.861254         2.638093         2.665068
 C        -0.918467         1.249318         2.133481
 C        -1.860360         3.448421         1.794883
 O        -2.636567         2.720855         1.031218
 C        -2.098517         1.765408         0.106241
 H        -0.169413        -0.384805         0.634554
 H         1.314909         2.384908         0.608389
 H         0.056025         3.070974        -0.643721
 H         0.206040         4.437285         1.922854
 H        -0.593151         2.772462         3.715159
 H        -0.242853         0.510776         2.558865
 H        -1.864424         0.801891         2.284563
 H        -2.469860         4.182569         2.404869
 H        -2.736960         0.949092        -0.040343
 H        -2.014212         2.162238        -0.959692
