19
Iteration:   308charge 0 multiplicity 1
 O        -0.162568         0.273482        -0.011166
 C        -0.678113         1.461774         0.545214
 C         0.370907         2.515828         0.769154
 C        -0.321800         3.386476         1.749460
 C        -1.127377         2.484709         2.723168
 C        -1.154571         1.118837         2.053212
 C        -1.863276         3.474640         1.847604
 O        -2.545544         3.023988         0.734044
 C        -1.882209         2.066690        -0.168427
 H         0.558226         0.013394         0.540567
 H         1.290196         2.013376         1.108855
 H         0.740863         2.935590        -0.090640
 H         0.170283         4.339890         2.269290
 H        -0.964115         2.871733         3.695581
 H        -0.451300         0.356634         2.520292
 H        -2.055045         0.585951         1.900350
 H        -2.214081         4.257889         2.435931
 H        -2.602980         1.220305        -0.264927
 H        -1.504339         2.596631        -1.121078
