19
Iteration:  1034charge 0 multiplicity 1
 O        -0.160824         0.219830        -0.118095
 C        -0.670276         1.396338         0.595883
 C         0.289225         2.618586         0.741942
 C        -0.340231         3.465007         1.851335
 C        -1.177656         2.481156         2.716414
 C        -1.008730         1.124223         2.138364
 C        -1.875655         3.439746         1.792729
 O        -2.493886         3.076382         0.626477
 C        -1.889210         2.007810        -0.059000
 H         0.712295         0.091418         0.289954
 H         1.228273         2.202706         1.127164
 H         0.366319         3.088050        -0.233817
 H         0.229424         4.207073         2.537209
 H        -1.351486         2.567121         3.754918
 H        -0.205239         0.490612         2.591627
 H        -1.950879         0.677433         2.190197
 H        -2.392011         4.193014         2.259335
 H        -2.597196         1.165688        -0.108948
 H        -1.727679         2.243310        -1.086367
