19
Iteration:  2187charge 0 multiplicity 1
 O         0.023237         0.239366         0.076815
 C        -0.698707         1.434076         0.568005
 C         0.363956         2.504137         0.690182
 C        -0.245138         3.359139         1.829756
 C        -1.126837         2.524290         2.765742
 C        -1.101105         1.192414         2.094551
 C        -1.751553         3.440104         1.784498
 O        -2.644852         3.081315         0.679901
 C        -2.036541         2.013692        -0.169553
 H        -0.615683        -0.320818        -0.374923
 H         1.339795         2.096144         1.091595
 H         0.547392         3.222615        -0.130525
 H         0.214890         4.379401         2.171259
 H        -1.153408         2.590363         3.895295
 H        -0.515191         0.307463         2.282951
 H        -2.081658         0.792781         2.219101
 H        -2.206777         4.407811         2.177241
 H        -2.814984         1.231047        -0.349950
 H        -1.840758         2.605917        -1.046849
