19
Iteration:  2259
 O        -0.200701         0.353620        -0.135458
 C        -0.721954         1.390529         0.651077
 C         0.229019         2.544236         0.761302
 C        -0.309072         3.414932         1.812805
 C        -1.157898         2.522347         2.701405
 C        -0.923135         1.099089         2.172044
 C        -1.780163         3.526896         1.758702
 O        -2.441094         3.117140         0.538800
 C        -2.037978         1.828461         0.047554
 H         0.763169         0.447500        -0.083162
 H         1.125047         1.990726         1.082295
 H         0.408545         2.987858        -0.222659
 H         0.431099         4.131561         2.288049
 H        -1.284839         2.592190         3.823924
 H        -0.138488         0.542964         2.725586
 H        -1.775369         0.398629         2.459031
 H        -2.224648         4.451101         2.187667
 H        -2.890585         1.170557         0.252639
 H        -1.965755         1.901861        -1.040747
