19
Iteration:  1784charge 0 multiplicity 1
 O        -0.305783         0.293731        -0.057451
 C        -0.708749         1.410858         0.663726
 C         0.316345         2.550413         0.800785
 C        -0.344553         3.442968         1.817206
 C        -1.230923         2.372738         2.731008
 C        -0.922194         1.026422         2.155109
 C        -1.841825         3.437052         1.826277
 O        -2.411392         3.212306         0.488820
 C        -1.917810         2.012713        -0.116245
 H         0.555106        -0.052733         0.262878
 H         1.345597         2.316429         1.293059
 H         0.516960         3.116146        -0.124902
 H         0.202417         4.106237         2.439953
 H        -1.388625         2.663663         3.778030
 H         0.159873         0.744183         2.423069
 H        -1.615266         0.227061         2.405706
 H        -2.414685         4.360045         2.155328
 H        -2.735037         1.307819        -0.093205
 H        -1.594996         2.139893        -1.190185
