19
Iteration:  3542
 O        -0.172196         0.286355        -0.193667
 C        -0.650506         1.416019         0.737119
 C         0.204289         2.585521         0.598795
 C        -0.415917         3.663020         1.549323
 C        -0.900452         2.616918         2.685588
 C        -0.612739         1.163316         2.204874
 C        -1.846692         3.482866         1.788304
 O        -2.742700         2.886686         0.827728
 C        -2.031776         1.698105         0.187732
 H        -0.889622         0.108842        -0.805564
 H         1.299789         2.651684         0.776133
 H         0.101215         2.923284        -0.441162
 H        -0.040782         4.663090         1.616371
 H        -0.803554         2.955058         3.698580
 H         0.551831         0.918247         2.512987
 H        -1.481084         0.510457         2.683814
 H        -2.519372         4.218165         2.373850
 H        -2.676390         0.728798         0.130494
 H        -2.089916         2.096957        -0.910178
