19
Iteration:  1162
 O        -0.212024         0.306493        -0.145715
 C        -0.644516         1.403230         0.639879
 C         0.316602         2.610676         0.802947
 C        -0.366508         3.520604         1.815131
 C        -1.174156         2.448525         2.705029
 C        -1.016431         1.100581         2.154242
 C        -1.829914         3.436337         1.797730
 O        -2.496227         3.055422         0.653421
 C        -1.912518         1.917238        -0.087660
 H         0.539271        -0.079866         0.343197
 H         1.375559         2.349492         0.999036
 H         0.428560         2.959955        -0.235615
 H         0.120278         4.388743         2.292266
 H        -1.347544         2.616021         3.733994
 H        -0.174842         0.530153         2.544201
 H        -1.834750         0.387141         2.248964
 H        -2.158795         4.374623         2.133768
 H        -2.719411         1.117872        -0.221642
 H        -1.603945         2.379435        -1.097579
