19
Iteration:  3311charge 0 multiplicity 1
 O        -0.348666         0.227623        -0.129781
 C        -0.627105         1.401345         0.630212
 C         0.267138         2.722340         0.605650
 C        -0.385814         3.533924         1.697059
 C        -0.962101         2.567755         2.730271
 C        -0.675504         1.176553         2.218972
 C        -1.827710         3.468178         1.828860
 O        -2.668545         2.892353         0.706732
 C        -2.034404         1.770151         0.087665
 H         0.280298         0.490887        -0.807839
 H         1.385524         2.432320         0.876208
 H         0.415953         3.255630        -0.413383
 H         0.077171         4.536389         1.981604
 H        -0.903050         3.001770         3.791386
 H         0.328979         0.994331         2.470006
 H        -1.495594         0.520317         2.542033
 H        -2.412019         4.248457         2.375323
 H        -2.732695         0.875252         0.177743
 H        -1.967193         2.088974        -1.010715
