19
Iteration:  1216
 O        -0.283950         0.301813        -0.103416
 C        -0.645017         1.459899         0.567294
 C         0.425054         2.664132         0.820152
 C        -0.221456         3.531763         1.873651
 C        -1.207257         2.484218         2.689686
 C        -1.101754         1.135412         2.088843
 C        -1.785967         3.501647         1.796648
 O        -2.524103         2.882008         0.700811
 C        -1.922485         1.882704        -0.108140
 H         0.610269         0.166416         0.196084
 H         1.240907         2.126954         1.306138
 H         0.801994         3.139496        -0.086566
 H         0.264710         4.485581         2.098567
 H        -1.408526         2.761905         3.712226
 H        -0.306060         0.471735         2.394037
 H        -2.003694         0.433113         2.066319
 H        -2.461441         4.174575         2.259614
 H        -2.749634         1.086205        -0.277753
 H        -1.788512         2.352220        -1.170094
