19
Iteration:  4704charge 0 multiplicity 1
 O        -0.425979         0.243756        -0.091730
 C        -0.653587         1.436047         0.601547
 C         0.235449         2.773021         0.527915
 C        -0.400193         3.652404         1.669595
 C        -0.916432         2.598458         2.718909
 C        -0.778978         1.245247         2.179744
 C        -1.821189         3.315065         1.881348
 O        -2.481745         2.890382         0.702575
 C        -2.007323         1.695377         0.117311
 H         0.493294        -0.107246         0.012289
 H         1.236806         2.476589         0.726995
 H         0.292590         3.310712        -0.436557
 H         0.189891         4.509232         1.987906
 H        -1.030521         2.779784         3.866588
 H         0.125318         0.701321         2.560258
 H        -1.730005         0.654818         2.385281
 H        -2.435313         4.184675         2.291937
 H        -2.637847         0.861008         0.233855
 H        -2.111862         1.950494        -0.964951
