19
Iteration:  3982
 O        -0.160666         0.345709        -0.140510
 C        -0.658834         1.420773         0.581613
 C         0.198121         2.672268         0.480173
 C        -0.360706         3.627378         1.512068
 C        -0.866400         2.697114         2.647565
 C        -0.688815         1.260610         2.117611
 C        -1.845411         3.420733         1.817389
 O        -2.710290         2.770905         0.968155
 C        -2.112925         1.653985         0.243802
 H        -0.238626        -0.395236         0.453023
 H         1.314282         2.282074         0.620277
 H         0.300635         3.112432        -0.524414
 H         0.047512         4.566712         1.832183
 H        -0.743412         2.886993         3.734896
 H         0.089047         0.608951         2.549754
 H        -1.733006         0.884594         2.315559
 H        -2.330269         4.492578         2.088070
 H        -2.656956         0.763861         0.536571
 H        -2.327262         1.952800        -0.854751
