19
Iteration:  3037charge 0 multiplicity 1
 O        -0.189354         0.283445        -0.041471
 C        -0.732587         1.363492         0.640748
 C         0.380010         2.513505         0.721643
 C        -0.355385         3.495252         1.533446
 C        -0.944426         2.649308         2.664325
 C        -0.822773         1.177177         2.098273
 C        -1.864766         3.487433         1.776171
 O        -2.743372         2.770126         0.958281
 C        -2.004469         2.027313        -0.018532
 H         0.225827         0.674849        -0.815986
 H         1.231403         2.259434         1.244749
 H         0.571713         2.693188        -0.398329
 H         0.000383         4.449236         1.910773
 H        -1.024464         2.947741         3.687282
 H        -0.038980         0.496060         2.507024
 H        -1.802256         0.590853         2.223014
 H        -2.152830         4.536179         2.178671
 H        -2.592344         1.273581        -0.633609
 H        -1.603710         2.704613        -0.756685
