19
Iteration:  4265charge 0 multiplicity 1
 O        -0.303411         0.312146        -0.088809
 C        -0.699375         1.334829         0.722270
 C         0.100842         2.738185         0.436118
 C        -0.389893         3.634493         1.548071
 C        -0.783293         2.660689         2.728033
 C        -0.649954         1.188947         2.245645
 C        -1.846244         3.386883         1.877749
 O        -2.585940         2.905471         0.755891
 C        -2.124725         1.653677         0.115056
 H         0.611576         0.072955         0.108551
 H         1.203509         2.563289         0.423759
 H        -0.111226         3.229032        -0.560630
 H        -0.006798         4.607761         1.630494
 H        -0.599967         2.869750         3.797236
 H         0.377625         0.792563         2.534913
 H        -1.403301         0.474245         2.685559
 H        -2.516117         4.024001         2.334092
 H        -2.999409         0.892383        -0.021386
 H        -1.854734         1.875420        -0.882525
