19
Iteration:  3411charge 0 multiplicity 1
 O        -0.262012         0.224970        -0.067298
 C        -0.637036         1.407316         0.629799
 C         0.286667         2.720057         0.508561
 C        -0.373417         3.600994         1.686885
 C        -0.958663         2.581996         2.756258
 C        -0.664566         1.231055         2.081163
 C        -1.858411         3.445185         1.772346
 O        -2.698743         2.939915         0.763739
 C        -2.020814         1.673583         0.220892
 H        -0.387909         0.264590        -1.046097
 H         1.307607         2.403557         0.909391
 H         0.251426         3.489987        -0.303278
 H         0.023146         4.564330         1.939873
 H        -0.941617         2.634421         3.778591
 H         0.156246         0.767498         2.510261
 H        -1.390553         0.463363         2.209118
 H        -2.421217         4.239937         2.180359
 H        -2.623413         0.828324         0.496886
 H        -2.122003         1.837857        -0.888044
