19
Iteration:  3529charge 0 multiplicity 1
 O        -0.145973         0.328564        -0.144040
 C        -0.662301         1.296602         0.687845
 C         0.168641         2.657760         0.530097
 C        -0.453586         3.602199         1.480507
 C        -0.887449         2.664033         2.659596
 C        -0.625937         1.192064         2.278569
 C        -1.898578         3.434331         1.843188
 O        -2.707591         2.842858         0.868462
 C        -2.043255         1.833087         0.127887
 H        -0.851755         0.037052        -0.767362
 H         1.131448         2.326955         0.933848
 H         0.239673         2.904762        -0.492732
 H         0.176977         4.434891         1.706240
 H        -0.756464         2.856743         3.653713
 H         0.458043         0.864051         2.625453
 H        -1.252396         0.320594         2.743265
 H        -2.334068         4.303495         2.290801
 H        -2.841760         0.986499         0.100335
 H        -1.719548         2.118055        -0.876107
