19
Iteration:  1381charge 0 multiplicity 1
 O        -0.195750         0.299898        -0.117491
 C        -0.605582         1.422439         0.609746
 C         0.277949         2.697953         0.766421
 C        -0.332259         3.387346         1.869295
 C        -1.177373         2.457326         2.677131
 C        -1.089067         1.078561         2.092368
 C        -1.799477         3.554348         1.755090
 O        -2.407922         3.102144         0.578962
 C        -1.961837         1.856426         0.032076
 H         0.452740        -0.264774         0.390593
 H         1.308631         2.432859         1.027630
 H         0.082012         3.382695        -0.076013
 H         0.333880         4.178897         2.473739
 H        -1.181253         2.584896         3.765658
 H        -0.365415         0.402043         2.600304
 H        -1.954830         0.241626         1.974788
 H        -2.389871         4.211081         2.363261
 H        -2.758572         1.137423         0.275743
 H        -1.845558         1.874839        -1.021267
