19
Iteration:  3686
 O        -0.126182         0.384849        -0.153464
 C        -0.658216         1.381405         0.659818
 C         0.177830         2.642078         0.491062
 C        -0.455611         3.594591         1.491777
 C        -0.840128         2.659712         2.693820
 C        -0.691558         1.213968         2.195318
 C        -1.837785         3.436553         1.794591
 O        -2.703835         2.789400         0.932917
 C        -2.090492         1.781232         0.137057
 H        -0.459600        -0.493009         0.171211
 H         1.164404         2.378099         0.840443
 H         0.172640         2.907616        -0.570520
 H         0.032985         4.515003         1.817484
 H        -0.804131         2.955785         3.782421
 H         0.314257         0.676952         2.495398
 H        -1.369481         0.514662         2.691318
 H        -2.320239         4.224955         2.228108
 H        -2.738173         0.843118         0.108419
 H        -2.193808         2.233956        -0.801490
