19
Iteration:  2697charge 0 multiplicity 1
 O        -0.068865         0.315056        -0.190582
 C        -0.660299         1.410251         0.628984
 C         0.379640         2.597412         0.648859
 C        -0.286461         3.465380         1.785718
 C        -1.167802         2.546089         2.723659
 C        -0.812010         1.169936         2.111276
 C        -1.811703         3.531935         1.755499
 O        -2.595243         3.094384         0.591405
 C        -2.224768         1.662563         0.283652
 H        -0.832160        -0.132152        -0.644731
 H         1.400824         2.244465         0.936652
 H         0.624297         3.128420        -0.342848
 H         0.257393         4.365249         2.133479
 H        -0.986145         2.905835         3.779338
 H         0.107012         0.951192         2.602811
 H        -1.486516         0.328276         2.333237
 H        -2.351346         4.396123         2.175417
 H        -2.800259         1.102302         0.965855
 H        -2.534192         1.618477        -0.816958
