19
Iteration:  2405charge 0 multiplicity 1
 O        -0.159939         0.345363        -0.058356
 C        -0.727644         1.407633         0.658460
 C         0.267504         2.579617         0.550329
 C        -0.322425         3.365065         1.738646
 C        -1.044722         2.586526         2.786389
 C        -1.044705         1.196094         2.210684
 C        -1.801581         3.514902         1.858758
 O        -2.584325         2.902798         0.737865
 C        -1.857077         1.950867        -0.166439
 H        -0.369385        -0.542555         0.346895
 H         1.244360         2.101368         0.778438
 H         0.147167         3.165140        -0.281938
 H         0.278424         4.117554         2.097160
 H        -0.755311         2.726879         3.814069
 H        -0.132850         0.668563         2.578962
 H        -2.005796         0.627374         2.364303
 H        -2.428396         4.312301         2.276986
 H        -2.448920         1.180955        -0.613778
 H        -1.486630         2.523205        -1.077931
