19
Iteration:  4881charge 0 multiplicity 1
 O        -0.259816         0.260383        -0.162331
 C        -0.690619         1.380548         0.605590
 C         0.245271         2.740843         0.394341
 C        -0.221634         3.577461         1.682660
 C        -0.997923         2.683036         2.740465
 C        -0.888328         1.283323         2.213823
 C        -1.786721         3.554221         1.782738
 O        -2.618415         2.665153         0.946064
 C        -2.006678         1.738908         0.056877
 H         0.173223        -0.422645         0.397953
 H         1.299897         2.527888         0.479891
 H        -0.028938         3.312181        -0.545544
 H         0.183746         4.585047         1.893250
 H        -0.773279         2.722950         3.759215
 H        -0.223307         0.830927         2.845966
 H        -1.824591         0.725639         2.425758
 H        -2.377157         4.333356         2.262842
 H        -2.664007         0.939778        -0.054492
 H        -1.789217         2.185203        -0.925531
