19
Iteration:  2681
 O        -0.166272         0.384937        -0.218374
 C        -0.654379         1.389896         0.648400
 C         0.315022         2.604727         0.752433
 C        -0.256242         3.519129         1.747912
 C        -1.046609         2.609629         2.607561
 C        -0.832277         1.129919         2.173425
 C        -1.803944         3.535006         1.683527
 O        -2.616169         2.974782         0.662243
 C        -2.101238         1.739918         0.240078
 H        -0.884980        -0.277306        -0.341605
 H         1.205296         2.132785         1.144196
 H         0.342424         3.113620        -0.188654
 H         0.290932         4.313121         2.235476
 H        -1.303371         2.559190         3.621177
 H         0.112548         0.650206         2.587001
 H        -1.743048         0.570403         2.430309
 H        -2.288019         4.429597         2.115596
 H        -2.669717         0.851982         0.670361
 H        -2.212518         1.630043        -0.830223
