19
Iteration:  1772
 O        -0.317508         0.260352        -0.083401
 C        -0.712467         1.437387         0.611378
 C         0.377880         2.494344         0.913473
 C        -0.341726         3.429355         1.875724
 C        -1.300987         2.442245         2.762170
 C        -0.875603         1.138954         2.156820
 C        -1.784337         3.398343         1.710050
 O        -2.461269         3.183678         0.537936
 C        -1.973711         2.039350        -0.159766
 H         0.573889         0.051609         0.169087
 H         1.393995         1.893726         1.200408
 H         0.608145         2.817447        -0.136191
 H         0.041782         4.394590         2.104403
 H        -1.307382         2.452863         3.868584
 H         0.211789         0.884802         2.508736
 H        -1.387132         0.204699         2.304997
 H        -2.345096         4.093811         2.490416
 H        -2.556745         1.139066        -0.267165
 H        -1.685858         2.469273        -1.165715
