19
Iteration:  1185charge 0 multiplicity 1
 O        -0.155396         0.378994        -0.227046
 C        -0.635412         1.333771         0.714286
 C         0.317694         2.483347         0.762512
 C        -0.377323         3.335565         1.851022
 C        -1.139286         2.518476         2.672221
 C        -0.940299         1.098586         2.215794
 C        -1.912357         3.534729         1.737303
 O        -2.641209         3.079820         0.607743
 C        -1.895636         1.983459         0.004724
 H         0.663093        -0.084553         0.116105
 H         1.298999         2.143053         1.235891
 H         0.745153         3.059964        -0.062062
 H         0.348268         4.268900         2.019644
 H        -1.195562         2.940967         3.686017
 H        -0.224405         0.465159         2.806176
 H        -1.841079         0.555193         2.308112
 H        -2.355476         4.338195         2.295944
 H        -2.645172         1.187082        -0.308248
 H        -1.301080         2.390059        -0.896739
