19
Iteration:  4206
 O        -0.064382         0.369959        -0.063484
 C        -0.682191         1.386058         0.649845
 C         0.136678         2.673685         0.485014
 C        -0.384197         3.569222         1.539510
 C        -0.836097         2.657085         2.697720
 C        -0.668343         1.180174         2.161945
 C        -1.807181         3.465196         1.720063
 O        -2.701264         2.917130         0.857240
 C        -2.215138         1.610878         0.250487
 H        -0.677646        -0.131542        -0.652146
 H         1.180853         2.370987         0.740623
 H         0.104030         3.138640        -0.581479
 H         0.385650         4.312100         1.876683
 H        -0.865201         3.003635         3.733303
 H         0.350623         0.753424         2.411851
 H        -1.416731         0.518966         2.440317
 H        -2.289088         4.413679         2.200631
 H        -2.797484         0.824565         0.741362
 H        -2.476896         1.754384        -0.865637
