19
Iteration:  4643
 O        -0.103298         0.304992        -0.085832
 C        -0.639973         1.382322         0.574521
 C         0.317741         2.505330         0.572096
 C        -0.354838         3.510700         1.574710
 C        -0.955265         2.636374         2.668790
 C        -0.895168         1.191199         2.115507
 C        -1.840720         3.576516         1.791180
 O        -2.762488         2.907997         0.917501
 C        -2.094923         1.810415         0.121678
 H         0.840872         0.474406        -0.310142
 H         1.318883         2.074317         1.055148
 H         0.415513         2.939714        -0.444909
 H         0.201533         4.474572         1.838157
 H        -0.759213         2.564678         3.711422
 H        -0.034921         0.721250         2.580379
 H        -1.811377         0.658876         2.503366
 H        -2.200377         4.545953         2.244117
 H        -2.614568         0.792205         0.251056
 H        -2.189108         2.048302        -0.958884
