19
Iteration:  2795
 O        -0.124638         0.278376        -0.105893
 C        -0.662794         1.364505         0.645766
 C         0.410359         2.498278         0.726232
 C        -0.307774         3.493098         1.555438
 C        -0.991530         2.602481         2.661914
 C        -0.858623         1.199793         2.194065
 C        -1.811491         3.466762         1.707125
 O        -2.827935         2.870826         0.920795
 C        -2.116359         1.974226         0.027761
 H         0.417121         0.555361        -0.878669
 H         1.288664         2.193490         1.158212
 H         0.638674         2.912253        -0.370656
 H         0.047714         4.477544         1.763707
 H        -0.847530         2.997706         3.657710
 H         0.054318         0.768503         2.575273
 H        -1.744165         0.567537         2.403719
 H        -2.043056         4.285835         2.244689
 H        -2.880202         1.215740        -0.032254
 H        -1.875424         2.496245        -0.975336
