19
Iteration:  1555
 O        -0.341769         0.352598        -0.168926
 C        -0.652002         1.412223         0.686527
 C         0.300487         2.672934         0.800894
 C        -0.362743         3.394564         1.904927
 C        -1.158881         2.463316         2.823106
 C        -0.931036         1.107543         2.174503
 C        -1.868871         3.447705         1.777259
 O        -2.389230         3.125628         0.478048
 C        -1.920452         1.816864        -0.099819
 H         0.370131        -0.244112         0.179154
 H         1.314531         2.268178         1.025689
 H         0.467910         3.355729        -0.053729
 H         0.224903         4.218585         2.305110
 H        -1.452040         2.688250         3.772597
 H        -0.129385         0.663912         2.624550
 H        -1.796681         0.384022         2.194089
 H        -2.251799         4.385329         2.231409
 H        -2.551490         0.918284        -0.073263
 H        -1.615084         1.993403        -1.173849
