19
Iteration:  4675charge 0 multiplicity 1
 O        -0.232683         0.230135        -0.024377
 C        -0.669432         1.369538         0.629686
 C         0.176944         2.693746         0.520798
 C        -0.361121         3.533633         1.662945
 C        -0.923366         2.549871         2.674907
 C        -0.774201         1.189272         2.234679
 C        -1.790364         3.482712         1.763819
 O        -2.676414         2.905775         0.806939
 C        -2.052779         1.831798         0.014413
 H         0.713230         0.322045        -0.231075
 H         1.284326         2.446177         0.560595
 H         0.048552         3.250838        -0.397738
 H         0.237028         4.428656         2.007183
 H        -0.893437         2.650528         3.735655
 H         0.142069         0.787807         2.613573
 H        -1.594770         0.497911         2.690002
 H        -2.194994         4.389844         2.272008
 H        -2.768194         0.945902         0.007121
 H        -1.939236         2.348689        -0.994388
