19
Iteration:  1949
 O        -0.009440         0.259915        -0.097685
 C        -0.635364         1.408698         0.631384
 C         0.367899         2.434205         0.799193
 C        -0.315427         3.465657         1.734919
 C        -1.195764         2.485091         2.672461
 C        -1.238167         1.108709         2.054366
 C        -1.822233         3.572175         1.767995
 O        -2.590945         3.043847         0.785092
 C        -1.943470         2.039627        -0.109410
 H         0.608852        -0.098488         0.547622
 H         1.320841         2.194825         1.337982
 H         0.700909         2.832176        -0.167100
 H         0.496435         4.019960         2.266024
 H        -1.129992         2.551991         3.759395
 H        -0.626099         0.373375         2.617955
 H        -2.241044         0.718307         2.045999
 H        -2.104345         4.451881         2.205677
 H        -2.685491         1.319643        -0.441362
 H        -1.579890         2.665806        -0.990582
