19
Iteration:  2466charge 0 multiplicity 1
 O        -0.261333         0.325884        -0.123891
 C        -0.721259         1.420083         0.671198
 C         0.339975         2.541878         0.745297
 C        -0.266251         3.492220         1.748911
 C        -1.120749         2.541837         2.690344
 C        -0.906721         1.154206         2.155273
 C        -1.802096         3.502551         1.731135
 O        -2.531439         3.007457         0.612376
 C        -2.034693         1.790491         0.129082
 H         0.462148         0.759731        -0.631109
 H         1.333390         2.248838         1.013718
 H         0.500155         3.103300        -0.240754
 H         0.219251         4.415979         1.996446
 H        -1.221202         2.659964         3.714344
 H        -0.005045         0.749301         2.592201
 H        -1.656469         0.387844         2.361194
 H        -2.308103         4.279508         2.211942
 H        -2.659607         0.895248         0.450357
 H        -2.076561         1.905022        -0.946267
