19
Iteration:  3095
 O        -0.246557         0.253933        -0.078471
 C        -0.698994         1.471467         0.616324
 C         0.243902         2.753320         0.601211
 C        -0.317724         3.539352         1.775558
 C        -0.959071         2.501353         2.643841
 C        -0.876279         1.124666         2.098200
 C        -1.783565         3.468074         1.803626
 O        -2.598955         2.958929         0.755208
 C        -2.034181         1.766332         0.050188
 H         0.638036         0.075858         0.335179
 H         1.256454         2.389809         0.862762
 H         0.283065         3.108305        -0.474486
 H         0.094404         4.469871         2.214199
 H        -1.063235         2.793412         3.722326
 H         0.127359         0.685831         2.393204
 H        -1.730995         0.476276         2.244514
 H        -2.327260         4.261975         2.236040
 H        -2.674534         0.954454         0.382511
 H        -2.201543         1.940987        -1.018539
