19
Iteration:  2516
 O        -0.117880         0.236457         0.007979
 C        -0.717336         1.378180         0.611997
 C         0.176011         2.769618         0.530411
 C        -0.318799         3.533439         1.788048
 C        -1.100569         2.477266         2.714721
 C        -0.870356         1.151463         2.028075
 C        -1.803582         3.437235         1.857786
 O        -2.385438         3.114667         0.617211
 C        -2.136490         1.749212         0.078614
 H        -0.264117        -0.497289         0.609069
 H         1.252340         2.483750         0.788773
 H         0.109734         3.304988        -0.417691
 H         0.202803         4.426925         2.271671
 H        -1.134706         2.536168         3.866839
 H         0.017058         0.589797         2.457376
 H        -1.696063         0.402222         2.112834
 H        -2.248456         4.327645         2.318078
 H        -2.835460         1.046293         0.507903
 H        -2.319648         1.868653        -1.045639
