19
Iteration:  2157
 O        -0.128020         0.391630        -0.137195
 C        -0.678344         1.344883         0.697352
 C         0.301179         2.531748         0.738619
 C        -0.281725         3.484717         1.759383
 C        -1.216269         2.555347         2.659155
 C        -1.226674         1.101218         2.144906
 C        -1.743277         3.535267         1.760632
 O        -2.427214         2.947336         0.751697
 C        -1.880910         1.939992        -0.052238
 H        -0.341222        -0.535969         0.101731
 H         1.262368         2.206442         1.076428
 H         0.528081         2.879375        -0.340965
 H         0.263012         4.311952         2.231903
 H        -1.144185         2.616474         3.742842
 H        -0.630268         0.241911         2.555835
 H        -2.296611         0.874721         2.203709
 H        -2.226372         4.448534         2.219301
 H        -2.605936         1.206133        -0.452914
 H        -1.438716         2.471212        -0.868655
