19
Iteration:  4781charge 0 multiplicity 1
 O        -0.169186         0.265308        -0.048978
 C        -0.644362         1.420834         0.697710
 C         0.095497         2.764388         0.471418
 C        -0.329586         3.556477         1.732667
 C        -0.884097         2.573551         2.650216
 C        -0.799229         1.209086         2.132705
 C        -1.813527         3.470168         1.858559
 O        -2.558317         2.953615         0.649333
 C        -2.041705         1.639690         0.196831
 H        -0.888608        -0.069159        -0.629338
 H         1.139464         2.531217         0.621476
 H        -0.112175         3.213430        -0.536037
 H         0.196206         4.530595         1.866917
 H        -0.820175         2.737456         3.790765
 H        -0.019062         0.596890         2.569605
 H        -1.817478         0.844922         2.403365
 H        -2.438467         4.096670         2.561975
 H        -2.661836         0.834524         0.588600
 H        -2.155433         1.629291        -0.928387
