19
Iteration:  3587
 O        -0.062032         0.265794         0.042787
 C        -0.710556         1.396037         0.597521
 C         0.056142         2.744228         0.422557
 C        -0.305249         3.591004         1.672280
 C        -0.920053         2.572825         2.725590
 C        -0.708882         1.168895         2.057658
 C        -1.789122         3.474554         1.813762
 O        -2.614309         2.940682         0.779284
 C        -2.165236         1.641407         0.238634
 H        -0.117024         0.379683        -0.922491
 H         1.110392         2.563315         0.220731
 H        -0.199232         3.248293        -0.523135
 H         0.142437         4.549888         1.992091
 H        -0.996272         2.673829         3.855442
 H         0.363760         0.826460         2.378361
 H        -1.571089         0.478958         2.299051
 H        -2.409933         4.317189         2.218586
 H        -2.990970         1.014890         0.689446
 H        -2.220940         1.630039        -0.891084
