19
Iteration:  4080charge 0 multiplicity 1
 O        -0.154839         0.267001        -0.052995
 C        -0.698523         1.451630         0.600286
 C         0.102865         2.766786         0.353794
 C        -0.277135         3.576092         1.581560
 C        -0.893551         2.695587         2.733899
 C        -0.757276         1.253830         2.209861
 C        -1.789061         3.462819         1.802298
 O        -2.663349         2.751924         0.927615
 C        -2.057871         1.632923         0.202432
 H        -0.479009         0.120607        -0.952814
 H         1.205036         2.624012         0.293070
 H        -0.243566         3.200127        -0.546937
 H         0.101609         4.513705         1.838778
 H        -0.736005         3.008050         3.787761
 H         0.097723         0.747525         2.618709
 H        -1.624126         0.486376         2.455858
 H        -2.229590         4.488748         1.950700
 H        -2.602693         0.749474         0.504849
 H        -2.181050         1.733414        -0.944313
