19
Iteration:  4115charge 0 multiplicity 1
 O        -0.177201         0.258485        -0.090803
 C        -0.690713         1.382872         0.655523
 C         0.150467         2.628209         0.503798
 C        -0.407451         3.622305         1.496488
 C        -0.800261         2.676408         2.688490
 C        -0.591619         1.216414         2.225053
 C        -1.860234         3.443570         1.790008
 O        -2.774988         2.865865         0.866582
 C        -2.128280         1.707823         0.234172
 H         0.207912         0.635059        -0.888947
 H         1.222620         2.429688         0.813123
 H         0.196261         2.906900        -0.559608
 H        -0.073136         4.672147         1.582025
 H        -0.586919         2.835744         3.759178
 H         0.373163         0.937513         2.428829
 H        -1.292534         0.430450         2.532262
 H        -2.248432         4.351741         2.026527
 H        -2.716949         0.883991         0.501199
 H        -2.152579         1.846537        -0.923642
