19
Iteration:  1173charge 0 multiplicity 1
 O        -0.154619         0.304996        -0.217558
 C        -0.664900         1.355703         0.721885
 C         0.350224         2.562380         0.757818
 C        -0.306635         3.500620         1.780119
 C        -1.171167         2.515687         2.728761
 C        -1.001456         0.986712         2.224235
 C        -1.879783         3.500845         1.791041
 O        -2.605869         3.079599         0.591605
 C        -1.883547         2.013533        -0.050262
 H         0.589899        -0.111898         0.190454
 H         1.334368         2.246165         1.173013
 H         0.361092         2.994154        -0.247183
 H         0.297772         4.285243         2.317511
 H        -1.195118         2.606467         3.797085
 H        -0.133561         0.622071         2.769189
 H        -1.905687         0.401786         2.386315
 H        -2.546252         4.138746         2.300297
 H        -2.643906         1.172407        -0.217397
 H        -1.541294         2.328806        -1.112049
