19
Iteration:  1148charge 0 multiplicity 1
 O        -0.254064         0.297031        -0.045435
 C        -0.668463         1.489127         0.587587
 C         0.308591         2.683984         0.741809
 C        -0.297481         3.386282         1.901239
 C        -1.185763         2.519072         2.758286
 C        -0.991639         1.144330         1.999704
 C        -1.798981         3.466543         1.798973
 O        -2.459451         2.967805         0.616391
 C        -1.924722         1.901282        -0.071564
 H         0.501412        -0.070054         0.420448
 H         1.188111         2.222421         1.152715
 H         0.508688         3.419750        -0.050992
 H         0.152548         4.225724         2.224389
 H        -1.249107         2.439929         3.851310
 H        -0.216533         0.581564         2.470853
 H        -1.984023         0.555965         2.004099
 H        -2.570146         4.176923         2.215565
 H        -2.679954         1.045009        -0.034159
 H        -1.765078         2.139046        -1.191799
