19
Iteration:  1169charge 0 multiplicity 1
 O        -0.176306         0.298866        -0.203405
 C        -0.647091         1.375351         0.691832
 C         0.340664         2.586914         0.789630
 C        -0.314704         3.530525         1.780450
 C        -1.170469         2.500522         2.717343
 C        -1.015468         1.019764         2.219406
 C        -1.854312         3.467808         1.803274
 O        -2.573636         3.076112         0.608134
 C        -1.889869         1.978138        -0.072372
 H         0.598938        -0.090007         0.299767
 H         1.352583         2.291306         1.043071
 H         0.343098         2.856647        -0.281797
 H         0.164403         4.260877         2.320428
 H        -1.272172         2.523871         3.801937
 H        -0.128519         0.548836         2.666554
 H        -1.902211         0.296107         2.370376
 H        -2.494645         4.294536         2.226251
 H        -2.661117         1.211528        -0.218635
 H        -1.622133         2.362359        -1.071364
