19
Iteration:  3512
 O        -0.107288         0.303117        -0.040915
 C        -0.715288         1.476265         0.615331
 C         0.231815         2.627730         0.437780
 C        -0.330914         3.534332         1.596872
 C        -0.912628         2.640955         2.695923
 C        -0.699446         1.258663         2.182334
 C        -1.850391         3.419153         1.805182
 O        -2.732222         2.755242         0.954854
 C        -2.094408         1.807937         0.058747
 H        -0.813041        -0.253438        -0.432011
 H         1.326813         2.451274         0.557043
 H         0.132456         3.114221        -0.601065
 H         0.054472         4.545836         1.829478
 H        -0.750659         2.994395         3.781847
 H         0.247974         0.870939         2.464233
 H        -1.473238         0.614320         2.515035
 H        -2.461960         4.261085         2.263456
 H        -2.704327         0.948743        -0.024167
 H        -1.903259         2.388020        -0.876494
