19
Iteration:  4446
 O        -0.227782         0.306738        -0.218953
 C        -0.667817         1.375550         0.703363
 C         0.167696         2.667794         0.484053
 C        -0.312731         3.562821         1.655431
 C        -1.021850         2.588998         2.710561
 C        -0.756472         1.231732         2.233549
 C        -1.796338         3.451329         1.761562
 O        -2.554351         2.886900         0.806962
 C        -2.069444         1.765428         0.166415
 H         0.102376        -0.373207         0.414526
 H         1.210022         2.504034         0.411962
 H        -0.077264         3.006776        -0.502922
 H         0.086137         4.482710         1.933961
 H        -1.005647         2.882988         3.792399
 H         0.191015         0.972578         2.796860
 H        -1.588446         0.582614         2.518470
 H        -2.338245         4.317044         2.057080
 H        -2.819245         0.907210         0.277299
 H        -1.995084         1.951732        -0.894789
