19
Iteration:  4725charge 0 multiplicity 1
 O        -0.240410         0.256652        -0.166637
 C        -0.629521         1.395153         0.680957
 C         0.243218         2.689423         0.577494
 C        -0.323674         3.537527         1.678241
 C        -1.022765         2.617361         2.675879
 C        -0.691613         1.075903         2.136178
 C        -1.839832         3.533419         1.765841
 O        -2.684946         2.988942         0.703153
 C        -2.097886         1.755523         0.236884
 H         0.400586        -0.228080         0.365812
 H         1.320251         2.496691         0.655998
 H         0.104952         3.149647        -0.441684
 H         0.278931         4.385634         2.017385
 H        -0.861881         2.854677         3.792817
 H         0.320225         0.715953         2.505685
 H        -1.434402         0.336280         2.372950
 H        -2.380098         4.405555         2.258977
 H        -2.728907         0.911465         0.502724
 H        -2.111264         1.850756        -0.843864
