19
Iteration:  3860
 O        -0.043763         0.381423        -0.087771
 C        -0.764408         1.332318         0.663623
 C         0.005458         2.676564         0.380763
 C        -0.356509         3.571359         1.576234
 C        -0.860255         2.598111         2.731732
 C        -0.541921         1.216480         2.245331
 C        -1.791419         3.478977         1.763382
 O        -2.777074         2.837486         0.859882
 C        -2.118178         1.710951         0.207630
 H        -0.585733        -0.395605        -0.287242
 H         1.163737         2.620038         0.384196
 H        -0.187934         3.190572        -0.561719
 H         0.357886         4.435684         1.559884
 H        -0.706820         2.958982         3.732247
 H         0.478477         1.020716         2.402824
 H        -1.282559         0.525271         2.672836
 H        -2.246013         4.361801         2.198048
 H        -2.822119         0.918455         0.407592
 H        -2.143139         1.899190        -0.883540
