19
Iteration:  1580
 O        -0.101145         0.293460        -0.082167
 C        -0.750130         1.340426         0.685717
 C         0.252663         2.687136         0.719134
 C        -0.312147         3.445510         1.902681
 C        -1.199031         2.409466         2.694468
 C        -1.049455         1.054630         2.076212
 C        -1.803598         3.463608         1.778806
 O        -2.316087         3.220507         0.542411
 C        -2.067273         1.853979        -0.021332
 H         0.643492        -0.010396         0.453287
 H         1.363657         2.416944         0.630073
 H         0.130839         3.336400        -0.182151
 H         0.262937         4.186809         2.409823
 H        -1.448958         2.609340         3.794887
 H        -0.231292         0.535904         2.580998
 H        -1.968816         0.407636         2.243349
 H        -2.472316         4.225212         2.391134
 H        -2.888862         1.132956         0.116248
 H        -1.792706         1.943112        -1.043622
