19
Iteration:  1145
 O        -0.256162         0.282484        -0.040379
 C        -0.652067         1.512861         0.570544
 C         0.309785         2.699721         0.741374
 C        -0.267785         3.366640         1.917380
 C        -1.174294         2.529876         2.763458
 C        -1.017107         1.150514         2.007292
 C        -1.815458         3.483059         1.810162
 O        -2.481794         2.958407         0.588667
 C        -1.929231         1.896188        -0.081420
 H         0.496059        -0.012282         0.485487
 H         1.261987         2.185846         1.048711
 H         0.546814         3.388288        -0.111905
 H         0.304950         4.304320         2.395824
 H        -1.215688         2.353533         3.896636
 H        -0.190484         0.491691         2.464304
 H        -1.927478         0.506430         1.987376
 H        -2.674317         4.122667         2.190307
 H        -2.619510         1.085505         0.032337
 H        -1.855030         2.115552        -1.118828
