19
Iteration:  3176
 O        -0.356136         0.213637        -0.084879
 C        -0.619713         1.405695         0.649483
 C         0.322550         2.792519         0.645047
 C        -0.396705         3.537150         1.749992
 C        -1.021592         2.490999         2.712451
 C        -0.689871         1.146938         2.124071
 C        -1.910321         3.445897         1.794844
 O        -2.523265         3.005522         0.619679
 C        -2.082578         1.783968         0.176700
 H         0.257581         0.381029        -0.835260
 H         1.434050         2.423277         1.015513
 H         0.232872         3.310586        -0.310379
 H         0.164165         4.448777         1.902626
 H        -0.975037         2.665714         3.731735
 H         0.317124         0.862929         2.431590
 H        -1.334972         0.268434         2.329246
 H        -2.539585         4.225588         2.217232
 H        -2.776527         1.003682         0.508627
 H        -2.169876         1.721796        -0.981768
