19
Iteration:  3280charge 0 multiplicity 1
 O        -0.166916         0.290507        -0.006479
 C        -0.688000         1.385420         0.642639
 C         0.242731         2.604924         0.570945
 C        -0.363807         3.492652         1.627697
 C        -0.984302         2.575561         2.678563
 C        -0.745147         1.185251         2.161030
 C        -1.808066         3.483255         1.811740
 O        -2.720417         2.813743         0.853377
 C        -2.022107         1.959479         0.010590
 H        -0.666952         0.187753        -0.854416
 H         1.306242         2.269147         0.868766
 H         0.345914         3.108246        -0.453433
 H         0.111552         4.525894         1.798861
 H        -0.917606         2.912550         3.741293
 H         0.292157         0.874624         2.449254
 H        -1.438329         0.406338         2.494379
 H        -2.323741         4.306056         2.355552
 H        -2.530806         0.998943        -0.312088
 H        -1.794628         2.552738        -0.869761
