19
Iteration:   110charge 0 multiplicity 1
 O        -0.226212         0.286681        -0.195264
 C        -0.665375         1.378168         0.672538
 C         0.300652         2.617936         0.765026
 C        -0.262427         3.474058         1.880422
 C        -1.148338         2.506902         2.752327
 C        -1.147478         1.153537         2.130462
 C        -1.786246         3.481754         1.770912
 O        -2.446791         3.004788         0.664722
 C        -1.895351         1.917008        -0.101983
 H         0.628434        -0.198317         0.034296
 H         1.293401         2.184316         1.168039
 H         0.325806         3.123995        -0.177035
 H         0.160063         4.293407         2.315435
 H        -1.307715         2.814912         3.810025
 H        -0.627050         0.397548         2.757990
 H        -2.131136         0.803157         2.081283
 H        -2.497203         4.184740         2.261187
 H        -2.605594         1.208527        -0.358353
 H        -1.446734         2.231179        -1.050450
