19
Iteration:  3041charge 0 multiplicity 1
 O        -0.217931         0.272670        -0.067643
 C        -0.716752         1.361105         0.639048
 C         0.356496         2.519241         0.720171
 C        -0.378945         3.510540         1.534353
 C        -0.963439         2.618621         2.667710
 C        -0.791847         1.156323         2.158605
 C        -1.831421         3.513300         1.806016
 O        -2.777431         2.762827         0.905816
 C        -1.981451         2.031594        -0.009899
 H         0.294968         0.626512        -0.837644
 H         1.404680         2.277827         1.218059
 H         0.614613         2.792371        -0.337902
 H         0.152437         4.406910         1.777984
 H        -0.960605         3.018193         3.684316
 H         0.008787         0.550370         2.602404
 H        -1.679130         0.603259         2.337015
 H        -2.243718         4.436504         2.073287
 H        -2.663498         1.410177        -0.593761
 H        -1.560877         2.823338        -0.719388
