19
Iteration:  4580
 O        -0.232597         0.163408        -0.031630
 C        -0.657974         1.379666         0.598015
 C         0.301625         2.655064         0.485559
 C        -0.353857         3.584625         1.635568
 C        -1.019913         2.526170         2.685320
 C        -0.682932         1.145169         2.164480
 C        -1.854036         3.500591         1.809975
 O        -2.721007         2.977603         0.826298
 C        -2.076083         1.890455         0.043722
 H         0.591593        -0.136909         0.420993
 H         1.294765         2.396293         0.765277
 H         0.286390         3.111667        -0.539110
 H         0.125088         4.558050         2.016661
 H        -1.057568         2.736935         3.733860
 H         0.384045         0.795392         2.565014
 H        -1.341778         0.432560         2.556544
 H        -2.430798         4.321431         2.344368
 H        -2.852527         1.087318         0.063059
 H        -1.867653         2.313256        -0.919176
