19
Iteration:  2767
 O        -0.248636         0.212881         0.028703
 C        -0.672845         1.440025         0.598291
 C         0.249658         2.679262         0.570660
 C        -0.299795         3.544335         1.689944
 C        -1.033341         2.551555         2.702920
 C        -0.866091         1.186991         2.058743
 C        -1.823682         3.469744         1.837628
 O        -2.591862         2.939611         0.772376
 C        -2.008783         1.787877         0.078609
 H         0.342265         0.335800        -0.753624
 H         1.408745         2.437680         0.588064
 H         0.218987         3.172683        -0.375028
 H         0.190166         4.475170         2.060641
 H        -0.955007         2.709923         3.769725
 H         0.061046         0.667634         2.394288
 H        -1.686005         0.471311         2.178460
 H        -2.260407         4.377881         2.387759
 H        -2.764224         0.992892         0.255084
 H        -1.888271         2.054345        -0.959962
