19
Iteration:   366charge 0 multiplicity 1
 O        -0.354654         0.352105        -0.186563
 C        -0.593504         1.391886         0.686046
 C         0.388367         2.546531         0.800797
 C        -0.300213         3.416309         1.917457
 C        -1.169883         2.507997         2.690399
 C        -1.092035         1.150396         2.138134
 C        -1.841859         3.558127         1.822751
 O        -2.518312         2.994312         0.596166
 C        -1.762814         1.910602        -0.070481
 H         0.526815        -0.131424        -0.082306
 H         1.261017         2.020836         1.180132
 H         0.489661         2.985333        -0.229149
 H         0.053992         4.330786         2.347133
 H        -1.345031         2.653284         3.747744
 H        -0.169745         0.765979         2.595654
 H        -1.982434         0.412105         2.050113
 H        -2.527052         4.358730         2.218656
 H        -2.493496         1.130927        -0.251417
 H        -1.619338         2.210895        -1.159167
