19
Iteration:  1498
 O        -0.106266         0.323425        -0.083509
 C        -0.717554         1.462693         0.622101
 C         0.356663         2.543965         0.764095
 C        -0.297956         3.429493         1.846332
 C        -1.101662         2.528751         2.725045
 C        -1.190616         1.111659         2.130781
 C        -1.770351         3.429297         1.784649
 O        -2.550329         2.965719         0.671311
 C        -1.929429         2.026432        -0.152823
 H         0.677692        -0.011730         0.340469
 H         1.254490         2.008787         1.064631
 H         0.416218         3.087474        -0.197821
 H         0.287247         4.321569         2.277509
 H        -1.304697         2.605005         3.851639
 H        -0.565815         0.471536         2.691946
 H        -2.159611         0.658699         2.202852
 H        -2.251886         4.315913         1.978333
 H        -2.560331         1.095137        -0.259539
 H        -1.709309         2.493080        -1.204383
