19
Iteration:   771charge 0 multiplicity 1
 O        -0.091959         0.309072        -0.150051
 C        -0.639687         1.407802         0.635124
 C         0.297121         2.497469         0.715470
 C        -0.310573         3.364797         1.905936
 C        -1.197479         2.561816         2.707525
 C        -1.138538         1.139790         2.109020
 C        -1.828674         3.459687         1.811323
 O        -2.520768         3.057370         0.692462
 C        -1.885251         1.996031        -0.108614
 H         0.685477        -0.139576         0.297059
 H         1.361802         2.264440         0.897742
 H         0.376197         2.979925        -0.235412
 H         0.075296         4.262518         2.239804
 H        -1.278845         2.487230         3.825695
 H        -0.372240         0.486002         2.645499
 H        -2.052774         0.618504         2.262106
 H        -2.436824         4.477001         2.024086
 H        -2.741008         1.284180        -0.080140
 H        -1.607680         2.348260        -1.072887
