19
Iteration:  4380
 O        -0.270360         0.161883         0.020820
 C        -0.607890         1.447248         0.591914
 C         0.238924         2.699764         0.445651
 C        -0.353636         3.601283         1.622542
 C        -0.953390         2.587666         2.684564
 C        -0.698996         1.233845         2.107378
 C        -1.848990         3.511923         1.819200
 O        -2.737559         2.867050         0.869485
 C        -2.071742         1.764475         0.128466
 H         0.606719         0.171324        -0.397132
 H         1.276023         2.516399         0.602595
 H         0.169544         3.127985        -0.518869
 H         0.137277         4.396515         2.080703
 H        -0.631087         2.631610         3.714462
 H         0.326403         0.942413         2.449379
 H        -1.418972         0.432735         2.309855
 H        -2.244261         4.384799         2.222089
 H        -2.739072         0.895063         0.279729
 H        -2.054273         1.936431        -0.980230
