19
Iteration:  4385charge 0 multiplicity 1
 O        -0.236986         0.151250         0.048728
 C        -0.620752         1.477022         0.568005
 C         0.248721         2.696295         0.444549
 C        -0.353756         3.610170         1.619844
 C        -0.972467         2.556092         2.690588
 C        -0.723014         1.227820         2.091573
 C        -1.820820         3.524873         1.828468
 O        -2.752232         2.871850         0.872749
 C        -2.073622         1.756993         0.130384
 H         0.496377         0.397515        -0.575161
 H         1.311805         2.459542         0.810892
 H         0.222338         3.095059        -0.645775
 H         0.346000         4.513503         1.872088
 H        -0.605586         2.716074         3.732835
 H         0.241908         0.823390         2.431682
 H        -1.423297         0.384280         2.233781
 H        -2.351807         4.414003         2.338565
 H        -2.688511         0.885622         0.387044
 H        -2.179592         1.802393        -1.004735
