19
Iteration:  4874charge 0 multiplicity 1
 O        -0.261833         0.302811        -0.189497
 C        -0.683048         1.379207         0.641977
 C         0.224988         2.686282         0.419488
 C        -0.234691         3.575080         1.680786
 C        -0.971460         2.719234         2.634071
 C        -0.914076         1.271468         2.197883
 C        -1.797168         3.544181         1.838265
 O        -2.597786         2.665914         0.967536
 C        -1.964595         1.735954         0.101121
 H         0.299487        -0.332613         0.281355
 H         1.309849         2.574346         0.555028
 H        -0.057809         2.947144        -0.565723
 H         0.110836         4.553542         1.995191
 H        -0.930229         2.813819         3.789051
 H        -0.120524         0.609038         2.717933
 H        -2.071744         0.989558         2.348818
 H        -2.453551         4.451122         1.979064
 H        -2.666570         0.855593         0.052082
 H        -1.817232         2.152489        -0.965145
