19
Iteration:  2750charge 0 multiplicity 1
 O        -0.243056         0.171284         0.005201
 C        -0.693880         1.433516         0.632939
 C         0.134669         2.812153         0.484940
 C        -0.308576         3.511167         1.815029
 C        -0.948866         2.506474         2.767004
 C        -0.817828         1.159074         2.222541
 C        -1.822666         3.398064         1.827850
 O        -2.433286         2.997754         0.624336
 C        -2.057070         1.777317         0.022460
 H        -0.085860         0.321033        -0.967782
 H         1.155718         2.679313         0.523899
 H        -0.402209         3.424528        -0.329774
 H         0.286611         4.412039         2.016534
 H        -1.108153         2.757161         3.851258
 H         0.064657         0.660591         2.658364
 H        -1.766766         0.631069         2.442904
 H        -2.438158         4.307854         2.092911
 H        -2.813549         0.991377         0.276548
 H        -2.123620         1.986788        -1.108302
