19
Iteration:  1024
 O        -0.119000         0.251316        -0.110292
 C        -0.689059         1.372834         0.650156
 C         0.254480         2.605246         0.763963
 C        -0.354558         3.487396         1.860687
 C        -1.119480         2.482198         2.783373
 C        -1.043471         1.017071         2.137349
 C        -1.840835         3.489384         1.846378
 O        -2.538867         3.130732         0.607877
 C        -1.899660         1.927220        -0.177032
 H         0.725375         0.024499         0.257586
 H         1.292859         2.333572         0.963040
 H         0.402180         3.074169        -0.218270
 H         0.303843         4.477652         2.046426
 H        -1.338488         2.795808         3.769097
 H        -0.238860         0.370697         2.544585
 H        -1.876336         0.358452         2.183511
 H        -2.299797         4.286368         2.263101
 H        -2.811167         1.293133        -0.219618
 H        -1.558758         2.355078        -1.135979
