19
Iteration:   963charge 0 multiplicity 1
 O        -0.293346         0.240173        -0.200774
 C        -0.605032         1.461312         0.691292
 C         0.397741         2.658586         0.847831
 C        -0.385397         3.450498         1.916540
 C        -1.156756         2.475235         2.646766
 C        -0.992834         1.091783         2.072262
 C        -1.845698         3.514003         1.736082
 O        -2.510072         3.029347         0.613511
 C        -1.917940         1.904642        -0.017601
 H         0.542244        -0.108456         0.131575
 H         1.287657         2.323090         1.426503
 H         0.630274         3.299063        -0.059014
 H         0.050553         4.134398         2.576207
 H        -1.098546         2.769519         3.764537
 H        -0.126033         0.590236         2.524229
 H        -1.998816         0.493347         2.102933
 H        -2.359731         4.550862         2.005423
 H        -2.648284         1.111902         0.043329
 H        -1.592424         1.909790        -1.052634
