19
Iteration:  1203charge 0 multiplicity 1
 O        -0.208032         0.361910        -0.190932
 C        -0.704432         1.432913         0.683032
 C         0.427091         2.513219         0.843132
 C        -0.303674         3.527514         1.764974
 C        -1.246819         2.517733         2.757011
 C        -1.031870         1.075400         2.120076
 C        -1.783630         3.457318         1.741515
 O        -2.572578         2.967688         0.684262
 C        -1.925454         1.974596        -0.095128
 H         0.685241         0.029219         0.106954
 H         1.333809         2.156003         1.298136
 H         0.648060         2.956591        -0.147193
 H         0.149577         4.304874         2.201652
 H        -1.259226         2.585889         3.806601
 H        -0.147823         0.768751         2.635634
 H        -1.911103         0.351149         2.345649
 H        -2.223590         4.372410         2.096510
 H        -2.549623         1.043835        -0.085155
 H        -1.651274         2.234964        -1.138835
