19
Iteration:  1711charge 0 multiplicity 1
 O        -0.071052         0.307338        -0.105727
 C        -0.718767         1.439235         0.594340
 C         0.327858         2.502262         0.743337
 C        -0.267057         3.386257         1.853870
 C        -1.091228         2.524824         2.810564
 C        -1.291268         1.174762         2.089873
 C        -1.744733         3.517958         1.808897
 O        -2.553956         2.943395         0.712807
 C        -1.885925         1.982747        -0.219065
 H         0.581600         0.089402         0.552841
 H         1.236552         2.095064         1.083150
 H         0.511543         3.029910        -0.201052
 H         0.422810         4.128004         2.313064
 H        -1.071121         2.821977         3.893315
 H        -0.730738         0.402969         2.545059
 H        -2.401917         0.959936         2.085354
 H        -2.372954         4.320352         2.181475
 H        -2.678317         1.254272        -0.499293
 H        -1.673955         2.603888        -1.057138
