19
Iteration:   611charge 0 multiplicity 1
 O        -0.319243         0.365084        -0.186646
 C        -0.617017         1.390194         0.674841
 C         0.325094         2.584448         0.774076
 C        -0.345417         3.363943         1.874666
 C        -1.155649         2.588751         2.737231
 C        -1.008547         1.054721         2.229669
 C        -1.860435         3.463603         1.810620
 O        -2.472021         3.038163         0.561967
 C        -1.855242         1.907029        -0.142825
 H         0.442170        -0.200463         0.090199
 H         1.239930         2.354483         1.283186
 H         0.538367         3.329631        -0.067242
 H         0.225743         4.363824         2.260837
 H        -1.183128         2.632005         3.836311
 H        -0.384786         0.397443         2.817482
 H        -1.994515         0.403439         2.351789
 H        -2.201595         4.493039         2.185103
 H        -2.721498         1.282798        -0.325571
 H        -1.332114         2.318219        -1.150875
