19
Iteration:  2573charge 0 multiplicity 1
 O        -0.137859         0.375568        -0.261176
 C        -0.740965         1.318891         0.712862
 C         0.253447         2.560978         0.706222
 C        -0.312866         3.540961         1.614210
 C        -1.027640         2.679121         2.715456
 C        -0.942151         1.117673         2.381104
 C        -1.782573         3.485375         1.707557
 O        -2.595316         2.866204         0.832288
 C        -1.940183         1.864444        -0.019455
 H        -0.859769        -0.246551        -0.566462
 H         1.258718         2.321766         1.049537
 H         0.362557         2.937138        -0.409553
 H         0.208831         4.408240         1.916653
 H        -1.145788         3.081623         3.643746
 H         0.078030         0.740866         2.605724
 H        -1.728822         0.442021         2.699268
 H        -2.320708         4.232633         2.191974
 H        -2.721770         1.143029        -0.188652
 H        -1.714108         2.317780        -1.096789
