19
Iteration:  1101charge 0 multiplicity 1
 O        -0.107179         0.355672        -0.156469
 C        -0.690345         1.438980         0.652523
 C         0.240816         2.493560         0.701065
 C        -0.409397         3.508844         1.789613
 C        -1.206235         2.430737         2.771312
 C        -1.028802         1.010531         2.149336
 C        -1.849921         3.553248         1.795742
 O        -2.457112         3.071781         0.614507
 C        -1.883304         1.945964        -0.031206
 H         0.464895        -0.153828         0.422312
 H         1.167597         2.205496         1.212975
 H         0.370389         2.938406        -0.311684
 H         0.427548         4.239976         2.312611
 H        -1.120073         2.740915         3.884218
 H        -0.079292         0.567378         2.609021
 H        -1.897373         0.339713         2.273906
 H        -2.364303         4.437187         2.207603
 H        -2.579602         1.111700        -0.042841
 H        -1.670325         2.215597        -1.052072
