19
Iteration:  3047
 O        -0.250909         0.245981        -0.104960
 C        -0.660500         1.384404         0.649837
 C         0.343132         2.518823         0.686360
 C        -0.374221         3.539188         1.554255
 C        -0.986415         2.605957         2.680557
 C        -0.797557         1.139966         2.231980
 C        -1.821350         3.490827         1.796671
 O        -2.800761         2.769116         0.866632
 C        -1.945334         2.058681        -0.008726
 H         0.337041         0.538816        -0.821722
 H         1.254851         2.261877         1.109148
 H         0.624490         2.995067        -0.281579
 H         0.283633         4.416605         1.686671
 H        -0.803423         2.898783         3.706904
 H         0.145551         0.715216         2.654565
 H        -1.697429         0.521692         2.571763
 H        -2.424429         4.404226         2.116928
 H        -2.694571         1.406691        -0.519977
 H        -1.540162         2.787142        -0.696882
