19
Iteration:   334charge 0 multiplicity 1
 O        -0.134945         0.286362        -0.069596
 C        -0.667439         1.421930         0.596490
 C         0.325689         2.539408         0.796133
 C        -0.254525         3.442712         1.863562
 C        -1.099379         2.475946         2.732031
 C        -1.171793         1.083276         2.078259
 C        -1.768713         3.531741         1.730167
 O        -2.608937         2.978968         0.732631
 C        -1.915909         2.057651        -0.163691
 H         0.562065        -0.125568         0.428597
 H         1.296499         2.088560         1.048341
 H         0.665087         2.982833        -0.237983
 H         0.246680         4.346200         2.129733
 H        -1.395464         2.728090         3.754542
 H        -0.503479         0.354660         2.565241
 H        -2.266879         0.578819         2.024894
 H        -2.166141         4.382018         2.339521
 H        -2.629211         1.282854        -0.381895
 H        -1.517339         2.562251        -1.080141
