19
Iteration:  3137
 O        -0.002485         0.413549        -0.125507
 C        -0.771480         1.322633         0.639159
 C         0.123664         2.671977         0.576577
 C        -0.314390         3.499429         1.713471
 C        -1.069627         2.524711         2.680179
 C        -0.825447         1.050860         2.195765
 C        -1.810253         3.515534         1.776473
 O        -2.478528         3.084376         0.634445
 C        -2.126400         1.728242         0.229087
 H        -0.516885        -0.406137        -0.404307
 H         1.106486         2.582418         0.429470
 H        -0.193664         3.266464        -0.325759
 H         0.357802         4.141629         2.252024
 H        -1.156539         2.667587         3.781598
 H         0.173860         0.641922         2.512332
 H        -1.540119         0.318051         2.659477
 H        -2.275297         4.346415         2.248787
 H        -2.898721         0.999976         0.597419
 H        -2.055642         1.781585        -0.832345
