19
Iteration:   862charge 0 multiplicity 1
 O        -0.196182         0.369150        -0.171505
 C        -0.680272         1.382560         0.711466
 C         0.300199         2.545845         0.784165
 C        -0.299347         3.446001         1.907661
 C        -1.152908         2.498346         2.751423
 C        -1.068987         1.153333         2.130572
 C        -1.840455         3.456298         1.761394
 O        -2.556596         3.029156         0.604894
 C        -1.862787         1.907574        -0.122137
 H         0.639533         0.039140         0.227136
 H         1.329110         2.178687         1.000714
 H         0.513800         3.017381        -0.210987
 H         0.372666         4.248477         2.353575
 H        -1.218715         2.779524         3.759311
 H        -0.290694         0.547357         2.619629
 H        -2.011243         0.473624         2.185495
 H        -2.271487         4.272437         2.140149
 H        -2.539936         1.087972        -0.310762
 H        -1.464562         2.364157        -1.002796
