19
Iteration:  4333charge 0 multiplicity 1
 O        -0.134291         0.360727        -0.134812
 C        -0.729041         1.388028         0.663182
 C         0.225192         2.643866         0.527659
 C        -0.369108         3.540039         1.570328
 C        -0.833570         2.697934         2.653717
 C        -0.713606         1.229966         2.180740
 C        -1.878960         3.430687         1.821262
 O        -2.675536         2.832296         0.854249
 C        -2.108215         1.712836         0.171107
 H        -0.773267        -0.377580        -0.048365
 H         1.312359         2.473774         0.767256
 H         0.229357         3.000977        -0.495695
 H         0.172004         4.565753         1.683190
 H        -0.648123         2.998728         3.686004
 H         0.223279         0.760121         2.454706
 H        -1.641489         0.630448         2.562782
 H        -2.342271         4.394435         2.249481
 H        -2.929719         0.865173         0.227964
 H        -1.988534         1.935951        -0.856057
