19
Iteration:  4140
 O        -0.205321         0.175574         0.077279
 C        -0.706862         1.449954         0.543575
 C         0.297460         2.735644         0.441038
 C        -0.322603         3.585158         1.547434
 C        -0.920012         2.634188         2.557901
 C        -0.605201         1.289279         2.106309
 C        -1.871261         3.381552         1.814785
 O        -2.761769         2.871398         0.930874
 C        -2.198289         1.697287         0.236211
 H         0.397616         0.389437        -0.635439
 H         1.402489         2.566524         0.633956
 H         0.281098         3.213212        -0.651685
 H         0.221358         4.459612         2.071948
 H        -0.934364         2.870006         3.628760
 H         0.502016         1.122732         2.161502
 H        -1.165009         0.484281         2.347724
 H        -2.416670         4.220686         2.393666
 H        -2.804619         0.827987         0.610344
 H        -2.333741         1.866039        -0.852083
