19
Iteration:  2862
 O        -0.193640         0.162649         0.167643
 C        -0.649803         1.516579         0.528246
 C         0.287737         2.647458         0.539299
 C        -0.326565         3.512334         1.699835
 C        -1.005113         2.489824         2.676851
 C        -0.820812         1.177585         2.045097
 C        -1.822070         3.464125         1.855766
 O        -2.683700         2.962018         0.822489
 C        -2.033406         1.904552        -0.040708
 H        -0.159966         0.078372        -0.805568
 H         1.285666         2.339417         0.648575
 H         0.310050         3.271797        -0.441583
 H         0.216028         4.389973         2.134914
 H        -0.885396         2.637811         3.745912
 H         0.093963         0.712940         2.397120
 H        -1.716506         0.550795         2.212830
 H        -2.382001         4.141758         2.468541
 H        -2.641819         1.031958        -0.006565
 H        -1.878955         2.354575        -1.040248
