19
Iteration:  3131
 O         0.050340         0.414635        -0.162228
 C        -0.737100         1.362010         0.649706
 C         0.068781         2.619842         0.526315
 C        -0.367506         3.451421         1.738143
 C        -1.063383         2.529899         2.696550
 C        -0.853994         1.052329         2.194009
 C        -1.775337         3.509034         1.803047
 O        -2.500672         3.102686         0.661597
 C        -2.141724         1.758412         0.184068
 H        -0.365966        -0.451407         0.050387
 H         1.277317         2.453621         0.544732
 H        -0.166878         3.118176        -0.412547
 H         0.280435         4.298543         2.183940
 H        -1.096854         2.837936         3.758368
 H         0.110430         0.617242         2.507285
 H        -1.567580         0.376946         2.664285
 H        -2.091741         4.478695         2.300552
 H        -2.849889         1.081108         0.652008
 H        -2.105447         1.583872        -0.953524
