19
Iteration:   218charge 0 multiplicity 1
 O        -0.084125         0.287555        -0.082322
 C        -0.719287         1.409514         0.622649
 C         0.274694         2.601176         0.717457
 C        -0.309803         3.393868         1.895394
 C        -1.235915         2.424774         2.715432
 C        -1.031028         1.075717         2.059960
 C        -1.744304         3.539886         1.832396
 O        -2.449592         3.170213         0.540846
 C        -2.047991         1.877659        -0.026357
 H         0.631227         0.099647         0.565091
 H         1.312440         2.279569         0.880500
 H         0.362606         3.147148        -0.136124
 H         0.269867         4.013739         2.500020
 H        -1.266434         2.541392         3.851727
 H        -0.238451         0.490620         2.641927
 H        -1.945165         0.580342         2.116947
 H        -2.267836         4.486615         2.209817
 H        -2.924476         1.176636         0.185973
 H        -1.861139         2.051884        -1.171076
