19
Iteration:   478
 O        -0.217044         0.339848        -0.115323
 C        -0.695084         1.390281         0.633376
 C         0.318701         2.520161         0.859761
 C        -0.326310         3.485145         1.807297
 C        -1.301246         2.457696         2.680595
 C        -0.954331         1.004718         2.092515
 C        -1.832498         3.543266         1.786073
 O        -2.420156         3.147922         0.589526
 C        -1.958454         1.951877        -0.042286
 H         0.389115        -0.171361         0.436251
 H         1.264175         2.141047         1.208683
 H         0.601927         3.021754        -0.106816
 H         0.225854         4.162890         2.359842
 H        -1.284086         2.458637         3.769958
 H         0.047539         0.742540         2.431548
 H        -1.693135         0.094980         2.213651
 H        -2.279633         4.399425         2.229651
 H        -2.575859         1.089795        -0.055790
 H        -1.748181         2.087635        -1.095813
