19
Iteration:  4770charge 0 multiplicity 1
 O        -0.066860         0.333745        -0.079408
 C        -0.725232         1.396721         0.619272
 C         0.098020         2.698108         0.512096
 C        -0.338248         3.590563         1.658249
 C        -0.864215         2.587656         2.710407
 C        -0.797163         1.165358         2.170305
 C        -1.825078         3.461724         1.824078
 O        -2.539311         3.000140         0.679418
 C        -2.150232         1.624086         0.220662
 H        -0.778856        -0.274014        -0.316101
 H         1.125804         2.387072         0.629966
 H         0.070446         3.175434        -0.500217
 H         0.232950         4.433602         2.095603
 H        -0.923270         2.649949         3.857974
 H         0.055848         0.583303         2.558757
 H        -1.704081         0.543090         2.399098
 H        -2.357662         4.405721         2.150446
 H        -2.842963         0.911082         0.639736
 H        -2.175611         1.616273        -0.902539
