19
Iteration:  4463charge 0 multiplicity 1
 O        -0.308762         0.190845        -0.053830
 C        -0.635862         1.427326         0.582272
 C         0.267860         2.748462         0.536223
 C        -0.354523         3.564664         1.665802
 C        -0.956390         2.589516         2.672467
 C        -0.709081         1.165768         2.127288
 C        -1.848746         3.508043         1.829233
 O        -2.677328         2.963876         0.743742
 C        -2.083500         1.697343         0.155290
 H         0.633582         0.032490         0.181818
 H         1.349406         2.463185         0.855081
 H         0.264292         3.315051        -0.433318
 H         0.334798         4.397604         1.994484
 H        -0.859704         2.804236         3.721107
 H         0.261416         0.789264         2.383983
 H        -1.442470         0.331309         2.332895
 H        -2.348609         4.327626         2.353121
 H        -2.695264         0.877393         0.503518
 H        -2.123460         1.829247        -0.961344
