19
Iteration:  3684charge 0 multiplicity 1
 O        -0.149115         0.385243        -0.163300
 C        -0.636647         1.393227         0.652768
 C         0.177267         2.631128         0.498703
 C        -0.463840         3.593419         1.507428
 C        -0.852963         2.668537         2.690532
 C        -0.694129         1.232123         2.185459
 C        -1.834093         3.417038         1.781415
 O        -2.706186         2.793400         0.937117
 C        -2.073628         1.779823         0.148544
 H        -0.402497        -0.484611         0.205252
 H         1.235428         2.374205         0.824071
 H         0.240451         2.952044        -0.548576
 H         0.080245         4.511188         1.768137
 H        -0.787971         2.953320         3.781240
 H         0.272864         0.671502         2.507361
 H        -1.401416         0.473734         2.682033
 H        -2.313684         4.237216         2.266146
 H        -2.703157         0.776949         0.178595
 H        -2.233682         2.153261        -0.828775
