19
Iteration:  2493
 O        -0.135141         0.324071        -0.164127
 C        -0.727991         1.316007         0.704507
 C         0.084658         2.632365         0.548974
 C        -0.254459         3.414147         1.813615
 C        -1.069116         2.531263         2.707626
 C        -0.859531         1.077209         2.303381
 C        -1.846783         3.523874         1.785206
 O        -2.447102         3.097325         0.538862
 C        -2.063102         1.855364         0.072966
 H         0.591089         0.000592         0.433756
 H         1.219754         2.470540         0.512401
 H        -0.267076         3.214843        -0.286800
 H         0.421353         4.242770         2.189006
 H        -1.060509         2.799361         3.851741
 H        -0.038976         0.558620         2.899095
 H        -1.745211         0.395806         2.439925
 H        -2.439397         4.370137         2.297601
 H        -2.837664         1.087960         0.252376
 H        -1.921698         1.974993        -1.036411
