19
Iteration:  2591
 O        -0.130452         0.357134        -0.157601
 C        -0.672714         1.392609         0.669951
 C         0.348023         2.540154         0.640584
 C        -0.271551         3.538122         1.691239
 C        -0.934294         2.647102         2.720721
 C        -0.974948         1.225608         2.164952
 C        -1.825559         3.513841         1.761789
 O        -2.718292         2.751825         0.835435
 C        -2.004187         1.889817        -0.006536
 H        -0.831637        -0.344690        -0.198663
 H         1.283158         2.051943         1.007262
 H         0.384304         3.004511        -0.286645
 H         0.296035         4.476437         1.910905
 H        -0.817808         2.746070         3.841081
 H        -0.343188         0.568408         2.806151
 H        -2.035282         0.967044         2.358154
 H        -2.277883         4.433714         2.062904
 H        -2.591328         1.012061        -0.396657
 H        -1.693907         2.428593        -0.864723
