19
Iteration:  1499charge 0 multiplicity 1
 O        -0.105724         0.323926        -0.086596
 C        -0.716998         1.452109         0.622970
 C         0.370614         2.543123         0.765728
 C        -0.299741         3.426349         1.843788
 C        -1.110390         2.519606         2.737562
 C        -1.180540         1.117393         2.127291
 C        -1.780865         3.433452         1.776104
 O        -2.551743         2.972710         0.668647
 C        -1.937757         2.029039        -0.146304
 H         0.665143        -0.001511         0.357755
 H         1.266736         1.992438         1.079465
 H         0.427718         3.068981        -0.205169
 H         0.263075         4.341125         2.268129
 H        -1.255454         2.612144         3.836586
 H        -0.551755         0.503204         2.675902
 H        -2.167987         0.632662         2.189507
 H        -2.232769         4.335557         1.994470
 H        -2.539321         1.092746        -0.259573
 H        -1.720669         2.482915        -1.183073
