19
Iteration:    98
 O        -0.199208         0.294639        -0.127112
 C        -0.683456         1.370582         0.630427
 C         0.294868         2.608604         0.682497
 C        -0.327800         3.484042         1.817704
 C        -1.100939         2.510835         2.776099
 C        -1.257869         1.124521         2.123919
 C        -1.828737         3.481013         1.940191
 O        -2.435597         3.001699         0.637843
 C        -1.821982         1.916382        -0.146718
 H         0.612386         0.076037         0.335537
 H         1.407025         2.322758         1.007672
 H         0.532158         3.033706        -0.241435
 H         0.309856         4.283167         2.099043
 H        -1.084790         2.401393         3.848015
 H        -0.557315         0.389901         2.671784
 H        -2.231493         0.805934         2.094407
 H        -2.232014         4.411746         2.280939
 H        -2.608278         1.239996        -0.267167
 H        -1.515590         2.399338        -1.098333
