19
Iteration:  4276charge 0 multiplicity 1
 O        -0.246090         0.257594        -0.058839
 C        -0.739071         1.435015         0.681474
 C         0.043508         2.661361         0.419470
 C        -0.354408         3.634179         1.597064
 C        -0.799256         2.649080         2.705054
 C        -0.637010         1.246481         2.225645
 C        -1.825451         3.374372         1.880580
 O        -2.635130         2.881090         0.778245
 C        -2.079246         1.700300         0.088021
 H         0.704553         0.456025        -0.234545
 H         1.140930         2.491084         0.534334
 H        -0.246787         2.915217        -0.638841
 H         0.212461         4.492229         1.871387
 H        -0.941732         2.903078         3.767393
 H         0.261944         0.612127         2.419314
 H        -1.552663         0.699879         2.597537
 H        -2.261735         4.200111         2.346287
 H        -2.764995         0.815245         0.418977
 H        -2.000250         1.840951        -0.961047
