19
Iteration:  4832charge 0 multiplicity 1
 O        -0.187159         0.259889        -0.035182
 C        -0.711086         1.409392         0.659311
 C         0.306792         2.542381         0.573747
 C        -0.323535         3.577093         1.562908
 C        -0.886290         2.682120         2.630159
 C        -0.695153         1.210798         2.135130
 C        -1.922625         3.384293         1.812725
 O        -2.760598         2.899156         0.868532
 C        -2.150081         1.860221         0.058023
 H         0.725814         0.320508        -0.324940
 H         1.280533         2.049668         0.945519
 H         0.337905         2.942588        -0.483744
 H         0.349426         4.331198         1.952595
 H        -0.979134         2.921916         3.751052
 H         0.411510         0.954146         2.439280
 H        -1.327864         0.418818         2.535345
 H        -2.308438         4.354958         2.261005
 H        -2.890761         0.967147         0.156491
 H        -2.097804         2.252784        -0.950701
