19
Iteration:  1663
 O        -0.370886         0.260628        -0.177787
 C        -0.575231         1.374461         0.696749
 C         0.419158         2.598703         0.811177
 C        -0.362760         3.415142         1.827912
 C        -1.229930         2.496124         2.722111
 C        -0.976654         1.119227         2.145743
 C        -1.911852         3.460077         1.844692
 O        -2.513528         3.059140         0.570878
 C        -1.763718         2.010961        -0.100490
 H         0.403537        -0.287879         0.122689
 H         1.381344         2.225201         1.182715
 H         0.615517         3.091888        -0.135646
 H         0.077340         4.305863         2.217823
 H        -1.180815         2.527425         3.775258
 H        -0.149710         0.689717         2.836180
 H        -1.911124         0.534644         2.245691
 H        -2.333017         4.429232         2.157412
 H        -2.539201         1.262108        -0.159371
 H        -1.641646         2.467476        -1.119888
