19
Iteration:  3593charge 0 multiplicity 1
 O        -0.037763         0.239610         0.018767
 C        -0.695704         1.372346         0.619586
 C         0.003419         2.732852         0.409893
 C        -0.319756         3.618448         1.667623
 C        -0.877935         2.554167         2.698382
 C        -0.687592         1.158388         2.127502
 C        -1.807517         3.437736         1.819673
 O        -2.624346         2.984933         0.756147
 C        -2.197077         1.700117         0.242247
 H         0.114805         0.367934        -0.926737
 H         1.116108         2.613702         0.435259
 H        -0.411836         3.272113        -0.464626
 H         0.221515         4.538259         1.840344
 H        -0.990149         2.634567         3.731193
 H         0.201735         0.700530         2.494980
 H        -1.425010         0.418551         2.478419
 H        -2.320765         4.334948         2.178775
 H        -2.960357         0.911590         0.460636
 H        -2.193655         1.781048        -0.840778
