19
Iteration:  3735charge 0 multiplicity 1
 O        -0.192372         0.227750         0.068733
 C        -0.620764         1.448267         0.598675
 C         0.214890         2.833497         0.337351
 C        -0.364673         3.633736         1.542253
 C        -0.906059         2.628688         2.673646
 C        -0.768791         1.207837         2.065298
 C        -1.826393         3.434806         1.842612
 O        -2.671073         2.727793         0.992595
 C        -2.093440         1.690693         0.160163
 H         0.184301         0.336175        -0.808697
 H         1.242012         2.480406         0.602298
 H        -0.080664         3.456653        -0.526737
 H         0.093659         4.624697         1.715760
 H        -0.497005         2.786306         3.663293
 H         0.025436         0.677135         2.483744
 H        -1.652052         0.564098         2.295202
 H        -2.343392         4.382459         2.293257
 H        -2.683670         0.848424         0.397843
 H        -2.325328         2.070650        -0.926579
