19
Iteration:  3461
 O        -0.111816         0.315620        -0.144854
 C        -0.702073         1.414817         0.664886
 C         0.171473         2.627288         0.471127
 C        -0.365483         3.556495         1.528212
 C        -0.857661         2.658240         2.690732
 C        -0.840682         1.218295         2.169184
 C        -1.807464         3.443954         1.911683
 O        -2.722735         2.777521         0.934469
 C        -2.044300         1.829271         0.046006
 H         0.520672        -0.268590         0.288528
 H         1.195652         2.523073         0.747073
 H         0.043575         3.050169        -0.518354
 H         0.061044         4.599802         1.679302
 H        -0.712192         2.950936         3.795922
 H         0.010747         0.608411         2.655232
 H        -1.833181         0.676155         2.428890
 H        -2.296772         4.369425         2.226410
 H        -2.622123         0.819965         0.053055
 H        -1.898064         2.252662        -0.973681
