19
Iteration:   805charge 0 multiplicity 1
 O        -0.302947         0.287042        -0.089514
 C        -0.642260         1.475389         0.658870
 C         0.392611         2.616617         0.793318
 C        -0.260506         3.510769         1.938025
 C        -1.114369         2.460561         2.684727
 C        -1.093515         1.093141         2.079974
 C        -1.845660         3.414481         1.732955
 O        -2.517060         2.955024         0.666353
 C        -1.865195         1.992019        -0.138246
 H         0.614828        -0.004602         0.115077
 H         1.378338         2.334607         1.217935
 H         0.386327         3.230456        -0.085913
 H         0.102939         4.460859         2.254653
 H        -1.431909         2.602115         3.720057
 H        -0.397584         0.396714         2.624626
 H        -2.137714         0.751717         2.059754
 H        -2.452091         4.331336         2.113661
 H        -2.489557         1.086927        -0.332415
 H        -1.541158         2.236977        -1.118632
