19
Iteration:  3883
 O        -0.092008         0.409480        -0.218789
 C        -0.679487         1.378975         0.697222
 C         0.221063         2.590202         0.499327
 C        -0.364594         3.608435         1.479179
 C        -0.922365         2.681958         2.628300
 C        -0.596801         1.249434         2.232164
 C        -1.867665         3.424964         1.811613
 O        -2.752607         2.844640         0.943877
 C        -2.157444         1.642203         0.232081
 H        -0.773526        -0.289131        -0.206751
 H         1.344666         2.321312         0.517032
 H         0.041865         2.833449        -0.541177
 H         0.232813         4.548737         1.701138
 H        -0.844124         2.895772         3.664233
 H         0.435119         1.201087         2.557771
 H        -1.300801         0.516918         2.563789
 H        -2.353402         4.404171         2.236695
 H        -2.797584         0.818053         0.602999
 H        -2.296047         1.828148        -0.857545
