19
Iteration:  3036
 O        -0.182310         0.284644        -0.035600
 C        -0.732087         1.368142         0.641533
 C         0.383002         2.512409         0.714597
 C        -0.350363         3.492310         1.535490
 C        -0.940824         2.656177         2.661166
 C        -0.836476         1.180530         2.086321
 C        -1.872244         3.479586         1.767064
 O        -2.735311         2.772345         0.971531
 C        -2.009325         2.025104        -0.021014
 H         0.209649         0.681717        -0.814588
 H         1.209840         2.236730         1.260051
 H         0.562138         2.679693        -0.382917
 H        -0.013085         4.485491         1.943960
 H        -1.026197         2.921825         3.715991
 H        -0.052232         0.500989         2.476324
 H        -1.827384         0.593799         2.209846
 H        -2.139164         4.531317         2.198040
 H        -2.571373         1.247911        -0.616915
 H        -1.611336         2.682750        -0.778009
