19
Iteration:  2308
 O        -0.154878         0.286075        -0.027023
 C        -0.703853         1.391616         0.663191
 C         0.261755         2.635845         0.637082
 C        -0.334626         3.442382         1.854917
 C        -1.122363         2.498243         2.736307
 C        -0.930379         1.089767         2.113221
 C        -1.853896         3.481807         1.820782
 O        -2.413484         3.125994         0.564694
 C        -1.974309         1.876856         0.011756
 H        -0.889729        -0.360897        -0.143428
 H         1.360100         2.417657         0.661622
 H        -0.026066         3.220883        -0.265775
 H         0.172333         4.278292         2.180647
 H        -1.048804         2.634237         3.773619
 H        -0.047124         0.485223         2.451910
 H        -1.730757         0.374049         2.229222
 H        -2.447218         4.248686         2.247129
 H        -2.850231         1.183703         0.108915
 H        -1.728438         1.991988        -1.097574
