19
Iteration:  3812
 O        -0.185433         0.237721        -0.123960
 C        -0.596987         1.466675         0.623586
 C         0.114060         2.777589         0.433127
 C        -0.401928         3.650791         1.593544
 C        -0.833555         2.628596         2.658238
 C        -0.638949         1.218580         2.109722
 C        -1.828831         3.444888         1.856578
 O        -2.703004         2.843670         0.842380
 C        -2.135848         1.589102         0.259893
 H        -0.097214        -0.374130         0.637350
 H         1.253316         2.713369         0.437562
 H        -0.168101         3.304152        -0.547533
 H         0.003683         4.642899         1.708750
 H        -0.743143         2.977408         3.711010
 H         0.344701         0.880141         2.393439
 H        -1.479449         0.517469         2.382890
 H        -2.207632         4.330737         2.376446
 H        -2.687906         0.785532         0.638927
 H        -2.372924         1.658949        -0.856223
