19
Iteration:  4458
 O        -0.285033         0.202899        -0.102838
 C        -0.645734         1.435518         0.647116
 C         0.251480         2.748432         0.519182
 C        -0.329377         3.553508         1.645691
 C        -1.015296         2.605839         2.675410
 C        -0.722465         1.187292         2.156425
 C        -1.818134         3.504237         1.815003
 O        -2.644605         2.931720         0.751315
 C        -2.095791         1.723072         0.149713
 H         0.553646        -0.216197         0.184597
 H         1.230711         2.516425         0.789298
 H         0.158295         3.242834        -0.439785
 H         0.208831         4.408162         2.051171
 H        -0.720940         2.671937         3.759880
 H         0.292318         0.749017         2.470015
 H        -1.425650         0.420189         2.405433
 H        -2.322494         4.315599         2.380971
 H        -2.717506         0.837851         0.455514
 H        -2.123023         1.864155        -0.944268
