19
Iteration:   755
 O        -0.110348         0.327012        -0.085955
 C        -0.688520         1.430826         0.656513
 C         0.391350         2.546865         0.808224
 C        -0.298284         3.447279         1.769667
 C        -1.208418         2.399956         2.698416
 C        -1.039985         1.031678         2.103617
 C        -1.763048         3.481031         1.779147
 O        -2.600546         3.140717         0.619180
 C        -2.021700         1.981298        -0.054193
 H         0.639952         0.032844         0.502028
 H         1.330114         2.203068         1.286221
 H         0.618567         3.154069        -0.140855
 H         0.397235         4.243597         2.246011
 H        -1.361984         2.619254         3.725231
 H        -0.325983         0.433988         2.617107
 H        -1.981823         0.390536         2.053612
 H        -2.262580         4.268419         2.236734
 H        -2.672555         1.130737        -0.247503
 H        -1.700753         2.276618        -1.157716
