19
Iteration:  4330charge 0 multiplicity 1
 O        -0.113935         0.347109        -0.121446
 C        -0.707425         1.411344         0.635115
 C         0.219987         2.632428         0.532699
 C        -0.345699         3.539091         1.572197
 C        -0.854318         2.696664         2.636252
 C        -0.735048         1.227297         2.177934
 C        -1.879834         3.436433         1.805027
 O        -2.690178         2.831203         0.867565
 C        -2.123464         1.725068         0.203910
 H        -0.777007        -0.389508        -0.180337
 H         1.307581         2.493391         0.787600
 H         0.265530         3.063881        -0.550574
 H         0.164557         4.494229         1.628468
 H        -0.654110         2.964545         3.699090
 H         0.229432         0.761316         2.447536
 H        -1.605217         0.659075         2.507371
 H        -2.322590         4.284086         2.282689
 H        -2.896120         0.944006         0.359776
 H        -1.968777         1.908721        -0.877642
