19
Iteration:  1051
 O        -0.293010         0.336366        -0.075945
 C        -0.594839         1.462616         0.642126
 C         0.435449         2.647969         0.795328
 C        -0.310480         3.401325         1.889986
 C        -1.251771         2.464396         2.668312
 C        -1.032560         1.129127         2.023757
 C        -1.850092         3.515463         1.785333
 O        -2.504615         3.014081         0.629604
 C        -1.922455         1.832883        -0.038964
 H         0.568570        -0.042803         0.087861
 H         1.464500         2.319587         1.086647
 H         0.581659         3.240785        -0.146927
 H         0.172387         4.209598         2.250804
 H        -1.226970         2.596912         3.790268
 H        -0.171383         0.734040         2.579756
 H        -1.786920         0.253076         1.973830
 H        -2.381978         4.474907         2.225302
 H        -2.705632         1.037158        -0.000025
 H        -1.671079         2.184694        -1.104475
