19
Iteration:  4855
 O        -0.214954         0.329647        -0.157370
 C        -0.677580         1.418614         0.628920
 C         0.276327         2.623337         0.560088
 C        -0.353598         3.559676         1.499908
 C        -0.872636         2.669246         2.716817
 C        -0.908860         1.188529         2.204980
 C        -1.769634         3.489835         1.731983
 O        -2.721094         2.782031         0.930810
 C        -2.042549         1.782997         0.132962
 H         0.691928         0.037931         0.079763
 H         1.324541         2.364943         0.957609
 H         0.235665         3.144290        -0.455455
 H         0.216630         4.490825         1.606359
 H        -0.582595         2.888656         3.789103
 H        -0.109426         0.612165         2.822931
 H        -1.841089         0.696764         2.282447
 H        -2.313865         4.251437         2.313265
 H        -2.730710         0.841027         0.185934
 H        -1.974329         2.151892        -0.869296
