19
Iteration:  4048
 O        -0.056137         0.259898         0.060508
 C        -0.742318         1.428150         0.596357
 C         0.148240         2.710753         0.375716
 C        -0.386841         3.685769         1.504744
 C        -0.859211         2.629727         2.595436
 C        -0.603866         1.145516         2.131192
 C        -1.837885         3.400521         1.924170
 O        -2.769413         2.892918         0.908296
 C        -2.168581         1.745062         0.164565
 H        -0.393726        -0.463096        -0.513013
 H         1.156429         2.282651         0.689857
 H         0.326203         2.955517        -0.657374
 H         0.142929         4.470248         1.938599
 H        -0.648776         2.975499         3.634914
 H         0.341055         0.852799         2.319687
 H        -1.401774         0.508578         2.538483
 H        -2.278098         4.330992         2.355980
 H        -2.669671         0.885355         0.462348
 H        -2.197172         1.870297        -0.971569
