19
Iteration:   335charge 0 multiplicity 1
 O        -0.138718         0.281995        -0.079170
 C        -0.667562         1.419165         0.597153
 C         0.323253         2.544523         0.801998
 C        -0.252417         3.442242         1.863359
 C        -1.106599         2.481384         2.735073
 C        -1.166966         1.077994         2.088677
 C        -1.758488         3.530413         1.726925
 O        -2.607162         2.978634         0.734554
 C        -1.907210         2.056879        -0.164118
 H         0.552286        -0.118830         0.421363
 H         1.296508         2.088113         1.043548
 H         0.652418         3.016631        -0.243154
 H         0.193802         4.328868         2.117180
 H        -1.416792         2.782146         3.770964
 H        -0.508296         0.347984         2.554664
 H        -2.262712         0.586397         1.990937
 H        -2.187395         4.398734         2.350165
 H        -2.625021         1.280463        -0.399296
 H        -1.562887         2.545597        -1.086127
