19
Iteration:  1642charge 0 multiplicity 1
 O        -0.363387         0.324418        -0.243247
 C        -0.708235         1.395394         0.725704
 C         0.313141         2.641647         0.883593
 C        -0.314814         3.540386         1.905686
 C        -1.165730         2.483622         2.769943
 C        -0.965257         1.056828         2.222029
 C        -1.764402         3.484831         1.696721
 O        -2.428564         3.032287         0.494691
 C        -1.858573         1.889965        -0.068542
 H         0.458693        -0.124207         0.001345
 H         1.190967         2.166712         1.223771
 H         0.398009         3.173951        -0.055184
 H         0.213836         4.319650         2.394032
 H        -1.406631         2.640308         3.792275
 H        -0.087061         0.439179         2.595567
 H        -1.891986         0.419125         2.177220
 H        -2.541361         4.079425         2.278884
 H        -2.721700         1.187408        -0.106652
 H        -1.608915         2.143595        -1.161145
