19
Iteration:  3792charge 0 multiplicity 1
 O        -0.196110         0.392176        -0.189849
 C        -0.683157         1.367454         0.763617
 C         0.099256         2.660879         0.409352
 C        -0.337643         3.564636         1.515647
 C        -0.929782         2.632519         2.657343
 C        -0.507684         1.251923         2.246771
 C        -1.873503         3.466917         1.778496
 O        -2.727073         2.802079         0.873357
 C        -2.145375         1.706294         0.215205
 H         0.372736        -0.176888         0.384052
 H         1.199276         2.268549         0.380002
 H         0.120125         3.134016        -0.566750
 H         0.309835         4.334847         1.885604
 H        -0.956613         2.892874         3.753341
 H         0.530732         1.178948         2.399293
 H        -1.084480         0.494572         2.847834
 H        -2.339059         4.228145         2.274864
 H        -2.858673         0.883111         0.380067
 H        -2.231514         1.903454        -0.918104
