19
Iteration:  2080charge 0 multiplicity 1
 O        -0.194442         0.202381        -0.134032
 C        -0.663860         1.356220         0.696470
 C         0.269664         2.614061         0.678289
 C        -0.324000         3.394775         1.937847
 C        -1.161188         2.534563         2.736014
 C        -1.131826         1.080783         2.168747
 C        -1.842357         3.497941         1.804935
 O        -2.374360         3.169151         0.519880
 C        -1.932583         1.919971        -0.038871
 H         0.767355         0.213163        -0.074065
 H         1.298278         2.411651         0.804268
 H         0.140580         3.330663        -0.185460
 H         0.266879         4.196163         2.563966
 H        -1.079536         2.638009         3.876662
 H        -0.341561         0.491442         2.687739
 H        -2.041946         0.521128         1.986551
 H        -2.437716         4.349758         2.309478
 H        -2.765746         1.170787        -0.103335
 H        -1.504535         2.011400        -1.051423
