19
Iteration:  3986
 O        -0.203561         0.369474        -0.151463
 C        -0.657726         1.408125         0.608757
 C         0.224175         2.699679         0.480197
 C        -0.355150         3.602416         1.530570
 C        -0.877346         2.694748         2.667203
 C        -0.705008         1.284222         2.095870
 C        -1.832705         3.459880         1.801467
 O        -2.671969         2.720752         0.955645
 C        -2.108060         1.655397         0.222355
 H        -0.384367        -0.411474         0.437506
 H         1.250261         2.436144         0.712603
 H         0.188462         3.163767        -0.551141
 H         0.006678         4.576596         1.825962
 H        -0.681916         2.937145         3.722243
 H         0.024446         0.612982         2.688644
 H        -1.614972         0.773688         2.343034
 H        -2.230651         4.380822         2.037520
 H        -2.637102         0.685832         0.605048
 H        -2.402164         1.804210        -0.771672
