19
Iteration:  3527charge 0 multiplicity 1
 O        -0.141883         0.330973        -0.134115
 C        -0.670782         1.291922         0.696070
 C         0.178649         2.664866         0.505519
 C        -0.452421         3.582121         1.486864
 C        -0.895192         2.669838         2.652553
 C        -0.621423         1.197289         2.279856
 C        -1.897371         3.432174         1.849739
 O        -2.702541         2.827490         0.872443
 C        -2.046118         1.850365         0.121815
 H        -0.833014         0.003230        -0.756351
 H         1.077081         2.254212         0.909897
 H         0.269569         2.968151        -0.516013
 H         0.162850         4.455521         1.775304
 H        -0.758696         2.902818         3.704182
 H         0.367456         0.863428         2.587721
 H        -1.239921         0.391067         2.691397
 H        -2.300107         4.276752         2.285389
 H        -2.819734         1.043426         0.062570
 H        -1.794284         2.098938        -0.865384
