19
Iteration:  4042charge 0 multiplicity 1
 O        -0.042681         0.276003         0.026749
 C        -0.746800         1.405916         0.628716
 C         0.155530         2.686051         0.392127
 C        -0.442277         3.633977         1.449565
 C        -0.843344         2.614049         2.658060
 C        -0.624109         1.148184         2.165754
 C        -1.858302         3.428666         1.889951
 O        -2.760680         2.912725         0.898587
 C        -2.111499         1.762311         0.172335
 H        -0.642283        -0.300483        -0.492801
 H         1.082819         2.276208         0.751872
 H         0.197608         3.052504        -0.707558
 H         0.146266         4.541360         1.852981
 H        -0.623507         3.000073         3.630872
 H         0.589425         0.842859         2.137304
 H        -1.283972         0.425243         2.696332
 H        -2.246156         4.290494         2.370376
 H        -2.784666         0.777546         0.340642
 H        -2.167968         1.983596        -0.858675
