19
Iteration:  2262
 O        -0.190459         0.355362        -0.122362
 C        -0.692885         1.385471         0.661933
 C         0.219091         2.542697         0.754907
 C        -0.308349         3.400118         1.837408
 C        -1.142938         2.534182         2.688901
 C        -0.930560         1.085578         2.119357
 C        -1.780092         3.555285         1.754041
 O        -2.444509         3.116614         0.538187
 C        -2.070598         1.820808         0.078071
 H         0.789025         0.382532         0.038667
 H         1.164211         2.012272         1.123792
 H         0.391109         2.922776        -0.227365
 H         0.422284         4.145040         2.308032
 H        -1.264156         2.554827         3.784524
 H        -0.093657         0.605334         2.710703
 H        -1.795661         0.399288         2.362831
 H        -2.255437         4.466272         2.173259
 H        -2.939798         1.160523         0.195624
 H        -2.016748         1.974820        -1.073187
