19
Iteration:  4529charge 0 multiplicity 1
 O        -0.130621         0.357634        -0.212152
 C        -0.646678         1.365075         0.690563
 C         0.162597         2.685058         0.543723
 C        -0.207762         3.532859         1.652376
 C        -1.036651         2.631093         2.722336
 C        -0.908918         1.209381         2.226756
 C        -1.742955         3.480923         1.764072
 O        -2.596302         2.903886         0.774373
 C        -2.043123         1.658965         0.185286
 H        -0.852861        -0.319882        -0.303125
 H         1.284685         2.540723         0.485033
 H        -0.280307         3.198908        -0.334746
 H         0.332017         4.455480         1.856059
 H        -1.020105         2.933655         3.766297
 H        -0.196118         0.772863         2.859936
 H        -1.849265         0.572991         2.402153
 H        -2.268146         4.259074         2.183166
 H        -2.683315         0.829222         0.428319
 H        -1.976123         1.870766        -0.965137
