19
Iteration:  2346charge 0 multiplicity 1
 O        -0.235413         0.256908        -0.103711
 C        -0.647512         1.416065         0.663152
 C         0.409602         2.507646         0.759159
 C        -0.309099         3.416004         1.750994
 C        -1.133898         2.571269         2.774966
 C        -0.901788         1.168166         2.158030
 C        -1.868865         3.454514         1.745874
 O        -2.594640         3.043315         0.648706
 C        -1.991140         1.934595        -0.011789
 H         0.064395         0.538257        -0.979916
 H         1.389095         2.028064         0.913034
 H         0.558733         3.084487        -0.206906
 H         0.134786         4.430838         2.115626
 H        -1.207029         2.793607         3.887407
 H        -0.054832         0.672881         2.678978
 H        -1.795983         0.473775         2.422289
 H        -2.295533         4.388373         2.206401
 H        -2.663689         0.969274        -0.029496
 H        -1.773543         2.253062        -1.014695
