19
Iteration:  3069
 O        -0.390417         0.204068        -0.122183
 C        -0.653020         1.417163         0.652892
 C         0.381912         2.640834         0.598150
 C        -0.357291         3.501518         1.709055
 C        -1.019932         2.620954         2.721773
 C        -0.759656         1.242292         2.187071
 C        -1.882651         3.401632         1.868846
 O        -2.663058         2.834622         0.797581
 C        -1.891206         1.919932        -0.029128
 H         0.460516         0.332363        -0.576413
 H         1.397140         2.501421         0.746833
 H         0.289970         3.036067        -0.440587
 H         0.048496         4.444235         2.040548
 H        -1.142474         2.949689         3.719107
 H         0.160919         0.786387         2.578568
 H        -1.638107         0.543199         2.410466
 H        -2.459768         4.311023         2.182738
 H        -2.651294         1.134257        -0.231102
 H        -1.670924         2.455764        -0.937695
