19
Iteration:  4363
 O        -0.336187         0.230602        -0.127447
 C        -0.692507         1.378660         0.671189
 C         0.175296         2.740830         0.476841
 C        -0.327172         3.549163         1.620988
 C        -0.924050         2.649827         2.675993
 C        -0.626716         1.233362         2.243113
 C        -1.847603         3.396759         1.797163
 O        -2.646295         2.820378         0.840238
 C        -2.029171         1.813456         0.111866
 H         0.419958        -0.036449         0.421897
 H         1.307455         2.594032         0.540352
 H        -0.157139         3.217411        -0.528891
 H         0.195141         4.560877         1.605492
 H        -1.018468         3.063003         3.706886
 H         0.362948         0.850954         2.548390
 H        -1.346389         0.507814         2.646362
 H        -2.443047         4.211630         2.293297
 H        -2.726424         0.986224        -0.035631
 H        -1.853084         2.132529        -0.970518
