19
Iteration:  2309charge 0 multiplicity 1
 O        -0.158336         0.287699        -0.026789
 C        -0.717743         1.388141         0.667655
 C         0.265896         2.635904         0.648829
 C        -0.336181         3.452106         1.850161
 C        -1.121630         2.503579         2.734431
 C        -0.927537         1.074619         2.111712
 C        -1.853576         3.487240         1.821721
 O        -2.413772         3.119973         0.563644
 C        -1.961051         1.873954         0.006646
 H        -0.895438        -0.335277        -0.183950
 H         1.347841         2.389580         0.633200
 H        -0.058154         3.218191        -0.268042
 H         0.171347         4.280287         2.201086
 H        -1.020009         2.636803         3.787319
 H         0.002722         0.516502         2.429120
 H        -1.745499         0.389079         2.250593
 H        -2.456630         4.255662         2.256863
 H        -2.869834         1.203478         0.087945
 H        -1.722496         2.000915        -1.081370
