19
Iteration:  2708charge 0 multiplicity 1
 O        -0.063947         0.326834        -0.099620
 C        -0.688676         1.376259         0.583066
 C         0.278984         2.634425         0.579327
 C        -0.335626         3.440397         1.694028
 C        -1.181359         2.569520         2.738761
 C        -0.730098         1.098064         2.186483
 C        -1.820355         3.476846         1.778010
 O        -2.479951         3.118113         0.585555
 C        -2.222329         1.785253         0.289881
 H        -0.650886        -0.090751        -0.753718
 H         1.206896         2.138004         0.909154
 H         0.311516         3.258371        -0.363615
 H         0.140134         4.296327         2.176692
 H        -1.349949         2.698162         3.851760
 H         0.241817         0.759581         2.460251
 H        -1.474303         0.306395         2.372616
 H        -2.232322         4.384063         2.203540
 H        -2.801665         1.043267         0.769479
 H        -2.517527         1.584549        -0.805233
