19
Iteration:  2233charge 0 multiplicity 1
 O        -0.334924         0.237521        -0.164991
 C        -0.604678         1.358210         0.721216
 C         0.367444         2.620949         0.761195
 C        -0.333584         3.454363         1.852318
 C        -1.135487         2.564627         2.776544
 C        -0.940336         1.092308         2.250137
 C        -1.847716         3.452384         1.755115
 O        -2.458758         3.073829         0.526004
 C        -1.945873         1.912667        -0.025061
 H        -0.009938         0.609586        -1.014223
 H         1.386208         2.313932         0.920487
 H         0.246368         2.998616        -0.307616
 H         0.127611         4.343897         2.121910
 H        -1.341179         2.649913         3.798648
 H        -0.257963         0.559069         2.917743
 H        -1.736244         0.436028         2.456002
 H        -2.295704         4.331911         2.163716
 H        -2.786882         1.176591        -0.134931
 H        -1.582648         2.188364        -1.000472
