19
Iteration:   531charge 0 multiplicity 1
 O        -0.243977         0.315979        -0.142996
 C        -0.707974         1.421087         0.642807
 C         0.294566         2.611882         0.737161
 C        -0.310044         3.510995         1.856746
 C        -1.212001         2.496461         2.761221
 C        -1.143899         1.102989         2.161327
 C        -1.727105         3.481847         1.768878
 O        -2.419394         2.976163         0.697683
 C        -1.847992         1.926872        -0.146709
 H         0.629220         0.050248         0.187451
 H         1.074531         2.132844         1.294785
 H         0.587574         3.035440        -0.232348
 H         0.218519         4.224096         2.234534
 H        -1.315766         2.516896         3.850701
 H        -0.460874         0.356458         2.511526
 H        -2.223228         0.769835         2.036695
 H        -2.352267         4.198381         2.265136
 H        -2.559203         1.077891        -0.438168
 H        -1.364706         2.399339        -1.168913
