19
Iteration:   653charge 0 multiplicity 1
 O        -0.126460         0.250148        -0.076630
 C        -0.678860         1.384054         0.559506
 C         0.398592         2.665221         0.865624
 C        -0.314867         3.364702         1.899335
 C        -1.185344         2.442451         2.678047
 C        -0.991454         1.107991         2.052219
 C        -1.846552         3.531995         1.791225
 O        -2.454973         3.159178         0.575655
 C        -2.137559         1.926755        -0.049195
 H         0.595141        -0.080989         0.431035
 H         1.326546         2.137188         1.243773
 H         0.506827         3.084998        -0.157637
 H         0.383475         4.053116         2.287631
 H        -1.185110         2.606288         3.775911
 H        -0.227935         0.535784         2.544065
 H        -1.863844         0.327851         2.077422
 H        -2.456564         4.475579         1.996552
 H        -2.817134         1.088797         0.211541
 H        -2.117635         2.209483        -1.168041
