19
Iteration:  1415
 O        -0.274054         0.400520        -0.260509
 C        -0.677516         1.389199         0.706285
 C         0.315634         2.506463         0.862723
 C        -0.342257         3.412857         1.819011
 C        -1.212133         2.540627         2.776269
 C        -0.913765         1.062502         2.220599
 C        -1.811112         3.481194         1.721600
 O        -2.489255         3.075827         0.565331
 C        -1.922878         1.902280        -0.094902
 H         0.523077        -0.039891         0.158626
 H         1.248511         2.154645         1.314639
 H         0.675163         3.117401         0.047631
 H         0.168262         4.258627         2.280163
 H        -1.364327         2.766761         3.762538
 H         0.057319         0.804395         2.683191
 H        -1.783847         0.388270         2.498393
 H        -2.437592         4.167180         2.243967
 H        -2.680428         1.120165        -0.111320
 H        -1.663462         2.162502        -1.112766
