19
Iteration:   846
 O        -0.145570         0.260283        -0.173520
 C        -0.712314         1.340457         0.639201
 C         0.334344         2.547322         0.877551
 C        -0.324265         3.468295         1.825053
 C        -1.223138         2.533055         2.641002
 C        -0.967876         1.020064         2.175308
 C        -1.798558         3.526484         1.735150
 O        -2.574982         3.035155         0.655793
 C        -1.913217         2.059326        -0.060313
 H         0.682225         0.067523         0.260249
 H         1.264234         2.094708         1.255704
 H         0.503716         3.014405        -0.078272
 H         0.148139         4.343270         2.151619
 H        -1.557377         2.451761         3.721453
 H        -0.016028         0.640318         2.632672
 H        -1.745030         0.375282         2.440505
 H        -2.440564         4.417889         2.269029
 H        -2.757540         1.413579        -0.490781
 H        -1.529272         2.571145        -1.085254
