19
Iteration:  3469charge 0 multiplicity 1
 O        -0.111766         0.320793        -0.127272
 C        -0.628666         1.388570         0.607515
 C         0.194160         2.669098         0.456849
 C        -0.372504         3.575195         1.517419
 C        -0.837135         2.657401         2.716623
 C        -0.916299         1.235375         2.168232
 C        -1.841502         3.428941         1.884508
 O        -2.678673         2.742354         0.949715
 C        -2.058072         1.817241         0.061817
 H         0.224292        -0.251635         0.582563
 H         1.279387         2.467307         0.545280
 H         0.153459         3.162910        -0.555618
 H         0.214605         4.475906         1.772903
 H        -0.614853         2.834769         3.846374
 H        -0.124436         0.730639         2.589994
 H        -1.835813         0.772875         2.314396
 H        -2.446595         4.276251         2.364033
 H        -2.788010         1.029938         0.096707
 H        -2.128105         2.279582        -0.874730
