19
Iteration:   101
 O        -0.209729         0.295418        -0.152893
 C        -0.678858         1.365572         0.647819
 C         0.298188         2.619286         0.695513
 C        -0.320147         3.483182         1.845608
 C        -1.126672         2.543909         2.748981
 C        -1.227353         1.133086         2.137965
 C        -1.789195         3.454735         1.928378
 O        -2.431988         3.000842         0.644302
 C        -1.845878         1.908497        -0.140995
 H         0.667194        -0.050677         0.232305
 H         1.307480         2.309161         1.029525
 H         0.571774         3.071697        -0.304743
 H         0.258053         4.293305         2.109714
 H        -1.156589         2.451350         3.867970
 H        -0.638485         0.453455         2.684595
 H        -2.279119         0.797676         2.050138
 H        -2.352272         4.383337         2.311511
 H        -2.642327         1.219993        -0.358175
 H        -1.423000         2.289481        -1.052192
