19
Iteration:  1866charge 0 multiplicity 1
 O        -0.261548         0.236457        -0.114343
 C        -0.615475         1.395917         0.665534
 C         0.408656         2.571985         0.773563
 C        -0.405566         3.458291         1.830326
 C        -1.249283         2.425203         2.687452
 C        -0.967487         0.993495         2.173594
 C        -1.820390         3.501467         1.804143
 O        -2.501335         3.219187         0.546208
 C        -1.916109         1.969511        -0.071946
 H         0.538027        -0.118679         0.352061
 H         1.221282         2.197892         1.271009
 H         0.765921         3.133374        -0.086898
 H         0.079454         4.369343         2.263686
 H        -1.207408         2.641444         3.768017
 H        -0.112893         0.475652         2.605935
 H        -1.855553         0.249022         2.277424
 H        -2.300016         4.406574         2.312943
 H        -2.794616         1.320295        -0.209984
 H        -1.578898         2.306548        -1.031195
