19
Iteration:   661charge 0 multiplicity 1
 O        -0.097606         0.250905        -0.072271
 C        -0.684618         1.443890         0.539428
 C         0.415857         2.595546         0.811761
 C        -0.368622         3.403675         1.877697
 C        -1.195537         2.441321         2.766721
 C        -1.056042         1.105475         2.063465
 C        -1.815362         3.475604         1.753897
 O        -2.407537         3.155836         0.550509
 C        -2.163887         1.944459        -0.054149
 H         0.573578         0.054117         0.559289
 H         1.467823         2.218700         1.123324
 H         0.542856         3.161104        -0.093830
 H         0.094690         4.118918         2.510776
 H        -1.003668         2.515860         3.815665
 H        -0.079800         0.564762         2.438331
 H        -1.780051         0.370993         2.250336
 H        -2.244891         4.305716         2.246368
 H        -3.024698         1.280684         0.236923
 H        -2.276443         2.045547        -1.062850
