19
Iteration:  3550
 O        -0.190142         0.285598        -0.171302
 C        -0.647477         1.391427         0.710591
 C         0.274652         2.707970         0.531550
 C        -0.373443         3.622858         1.623342
 C        -0.934306         2.660244         2.693340
 C        -0.615320         1.215597         2.187046
 C        -1.849319         3.456773         1.772352
 O        -2.730162         2.846894         0.802452
 C        -2.087640         1.695681         0.211689
 H        -0.891666         0.130287        -0.806772
 H         1.262835         2.317021         0.736471
 H         0.124523         3.104282        -0.441426
 H        -0.041487         4.632944         1.809339
 H        -0.929109         2.879989         3.711130
 H         0.286820         0.657872         2.471298
 H        -1.432822         0.483125         2.449532
 H        -2.317660         4.215925         2.345911
 H        -2.640582         0.735090         0.501942
 H        -2.132433         1.774741        -0.835820
