19
Iteration:   566
 O        -0.153730         0.273403        -0.050208
 C        -0.660770         1.472832         0.645101
 C         0.383411         2.532556         0.722779
 C        -0.292094         3.346341         1.820068
 C        -1.194362         2.451207         2.736401
 C        -1.093658         1.114921         2.046910
 C        -1.788107         3.578330         1.748568
 O        -2.661739         3.048954         0.691403
 C        -1.862580         1.974927        -0.104129
 H         0.723527         0.108433         0.314607
 H         1.228066         2.101775         1.183205
 H         0.820367         3.148695        -0.093522
 H         0.230790         4.106173         2.446900
 H        -0.995007         2.580169         3.788086
 H        -0.499508         0.405353         2.591605
 H        -2.132824         0.564977         2.069587
 H        -2.227417         4.417601         2.205854
 H        -2.553371         1.154721        -0.331440
 H        -1.689691         2.659379        -1.031769
