19
Iteration:  3043charge 0 multiplicity 1
 O        -0.229109         0.265344        -0.081546
 C        -0.700683         1.367158         0.640864
 C         0.349777         2.519985         0.709845
 C        -0.386361         3.516910         1.538536
 C        -0.972552         2.608832         2.668226
 C        -0.787274         1.148409         2.186282
 C        -1.819783         3.511714         1.809061
 O        -2.789693         2.762368         0.887242
 C        -1.969239         2.037384        -0.008387
 H         0.305445         0.589565        -0.823230
 H         1.402782         2.277432         1.181750
 H         0.624334         2.852136        -0.279216
 H         0.245706         4.445188         1.738812
 H        -0.907800         3.012018         3.714838
 H         0.042916         0.602601         2.628076
 H        -1.676805         0.582003         2.418783
 H        -2.315738         4.422655         2.061896
 H        -2.685288         1.447970        -0.555228
 H        -1.548961         2.841448        -0.705256
