19
Iteration:  3688
 O        -0.103529         0.380343        -0.143293
 C        -0.684419         1.373947         0.665690
 C         0.177489         2.653139         0.483976
 C        -0.438961         3.595844         1.478855
 C        -0.830157         2.651333         2.696740
 C        -0.682482         1.193782         2.207985
 C        -1.842215         3.449374         1.807774
 O        -2.704221         2.784676         0.930216
 C        -2.108665         1.777486         0.130360
 H        -0.505901        -0.475152         0.123840
 H         1.127323         2.387194         0.852458
 H         0.111594         2.878381        -0.593128
 H        -0.007211         4.523592         1.845460
 H        -0.810405         2.944810         3.742152
 H         0.317393         0.730762         2.467881
 H        -1.372338         0.553530         2.681643
 H        -2.373025         4.285472         2.234043
 H        -2.760787         0.934713         0.051426
 H        -2.120962         2.314720        -0.856161
