19
Iteration:  3691
 O        -0.072061         0.370186        -0.127477
 C        -0.725487         1.370555         0.671796
 C         0.168339         2.666368         0.472269
 C        -0.409534         3.598586         1.470179
 C        -0.822384         2.640636         2.691188
 C        -0.661732         1.171702         2.224433
 C        -1.851503         3.461848         1.827522
 O        -2.709999         2.777844         0.931015
 C        -2.127624         1.780536         0.117152
 H        -0.562292        -0.443619         0.040004
 H         1.181262         2.394104         0.856210
 H         0.056798         2.866979        -0.608704
 H        -0.026242         4.549924         1.841634
 H        -0.790312         2.930302         3.707219
 H         0.310807         0.835801         2.429284
 H        -1.464823         0.548201         2.675167
 H        -2.444347         4.373295         2.256729
 H        -2.849779         0.996483        -0.021412
 H        -1.968707         2.351918        -0.927889
