19
Iteration:  4663
 O        -0.109836         0.234996        -0.048682
 C        -0.696451         1.400769         0.665273
 C         0.244657         2.623028         0.476071
 C        -0.278425         3.499948         1.531744
 C        -1.103316         2.604814         2.675240
 C        -0.780648         1.139696         2.167683
 C        -1.799796         3.445197         1.787122
 O        -2.701186         2.936216         0.900729
 C        -2.109980         1.895923         0.140328
 H         0.814507         0.463036        -0.196831
 H         1.288913         2.378875         0.767851
 H         0.186480         2.978198        -0.534555
 H         0.285488         4.352867         1.962487
 H        -1.109733         2.970888         3.722946
 H         0.156954         0.812382         2.523688
 H        -1.632719         0.333685         2.389738
 H        -2.283334         4.392430         2.200963
 H        -2.867429         1.101251        -0.043851
 H        -1.816530         2.215300        -0.943868
