19
Iteration:  1893charge 0 multiplicity 1
 O        -0.444636         0.232192        -0.126808
 C        -0.606250         1.485455         0.660878
 C         0.408701         2.600414         0.804701
 C        -0.279944         3.464800         2.005472
 C        -1.225239         2.527461         2.705196
 C        -1.047751         1.114129         2.127208
 C        -1.824425         3.485934         1.777793
 O        -2.512031         2.982515         0.586942
 C        -1.766344         1.918249        -0.160696
 H         0.502642        -0.015727        -0.011049
 H         1.481643         2.123765         1.045234
 H         0.584459         3.297811        -0.039611
 H         0.201390         4.378592         2.263348
 H        -1.361755         2.537934         3.768338
 H        -0.054586         0.744962         2.485640
 H        -1.826607         0.431994         2.250399
 H        -2.474582         4.314319         2.144537
 H        -2.532137         1.173903        -0.455345
 H        -1.363141         2.475037        -1.066987
