19
Iteration:  2370charge 0 multiplicity 1
 O        -0.239048         0.268191        -0.058201
 C        -0.640897         1.432345         0.641137
 C         0.402564         2.609138         0.747833
 C        -0.273117         3.475074         1.725254
 C        -1.110330         2.512281         2.617873
 C        -1.016472         1.126914         2.022171
 C        -1.782027         3.597571         1.706736
 O        -2.634402         2.946324         0.802831
 C        -1.996496         1.897762         0.027581
 H         0.740529         0.170426        -0.056019
 H         1.300311         2.163360         1.273576
 H         0.846132         3.034425        -0.118714
 H         0.318591         4.266516         2.178704
 H        -1.167203         2.690206         3.646548
 H        -0.411610         0.370693         2.577360
 H        -2.065059         0.657462         2.043834
 H        -2.313974         4.219229         2.372266
 H        -2.720245         1.049377         0.100814
 H        -1.791168         2.192824        -1.002424
