19
Iteration:  2246charge 0 multiplicity 1
 O        -0.264146         0.300520        -0.198164
 C        -0.724291         1.380893         0.700062
 C         0.332001         2.542790         0.718702
 C        -0.273453         3.483982         1.808533
 C        -1.192454         2.502664         2.781725
 C        -0.988477         1.088316         2.354536
 C        -1.787210         3.398644         1.747490
 O        -2.426107         3.138484         0.544055
 C        -1.997136         1.867391        -0.031530
 H         0.550007         0.651590        -0.628775
 H         1.333110         2.309426         0.997880
 H         0.404527         3.163881        -0.236386
 H         0.132019         4.405415         2.114419
 H        -1.286927         2.902515         3.775424
 H         0.019757         0.793000         2.582891
 H        -1.867580         0.461271         2.446374
 H        -2.368618         4.184479         2.180919
 H        -2.726732         1.029223         0.117888
 H        -1.808242         1.954749        -1.046953
