19
Iteration:  2119
 O        -0.316936         0.281007        -0.083358
 C        -0.682235         1.432538         0.640742
 C         0.489604         2.561651         0.894386
 C        -0.248263         3.412756         1.899976
 C        -1.203510         2.462105         2.674817
 C        -0.882097         1.123751         2.077273
 C        -1.846594         3.476565         1.681478
 O        -2.614472         3.115705         0.565847
 C        -1.969386         1.963784        -0.096216
 H         0.116515        -0.326117         0.554105
 H         1.283554         1.936796         1.437297
 H         0.827491         2.886821        -0.068605
 H         0.190412         4.262237         2.412490
 H        -1.209970         2.794519         3.694921
 H        -0.018206         0.746377         2.606674
 H        -1.633436         0.320015         2.269161
 H        -2.383810         4.245978         2.165238
 H        -2.778711         1.245643        -0.244314
 H        -1.622842         2.407117        -1.032586
