19
Iteration:  2124charge 0 multiplicity 1
 O        -0.313820         0.280196        -0.116724
 C        -0.625725         1.426424         0.615487
 C         0.493380         2.548918         0.918339
 C        -0.255239         3.381803         1.922876
 C        -1.171698         2.510591         2.681271
 C        -0.917781         1.130164         2.101612
 C        -1.882106         3.504012         1.691863
 O        -2.637703         3.089622         0.558222
 C        -1.957212         1.957577        -0.098820
 H         0.001768        -0.432326         0.448670
 H         1.308339         2.014242         1.365682
 H         0.788492         2.941605        -0.106170
 H         0.249034         4.276740         2.429348
 H        -1.114143         2.710455         3.804384
 H         0.015031         0.662094         2.563021
 H        -1.840243         0.588778         2.363360
 H        -2.283942         4.440199         2.230481
 H        -2.657885         1.095949        -0.259219
 H        -1.687146         2.334666        -1.111534
