19
Iteration:  4101
 O        -0.197389         0.297077        -0.137683
 C        -0.654816         1.352449         0.764464
 C         0.128820         2.679726         0.437035
 C        -0.371230         3.601063         1.516158
 C        -0.863280         2.714876         2.619489
 C        -0.676314         1.225486         2.250577
 C        -1.825141         3.465203         1.787801
 O        -2.667717         2.792394         0.881516
 C        -2.097925         1.664042         0.233728
 H        -0.108152         0.760606        -1.007382
 H         1.201893         2.481872         0.382251
 H        -0.116366         3.083620        -0.511656
 H         0.247502         4.414073         1.730952
 H        -0.890098         3.118415         3.644623
 H         0.296047         0.781216         2.601128
 H        -1.565096         0.685997         2.843378
 H        -2.424184         4.150093         2.471662
 H        -2.753613         0.757325         0.272812
 H        -1.961950         1.949406        -0.837051
