19
Iteration:  3415charge 0 multiplicity 1
 O        -0.287448         0.223703        -0.075091
 C        -0.628897         1.445337         0.625980
 C         0.302244         2.704389         0.528528
 C        -0.359286         3.575683         1.673575
 C        -0.990053         2.579892         2.745410
 C        -0.656924         1.255542         2.103604
 C        -1.874212         3.430025         1.763367
 O        -2.708645         2.931486         0.792255
 C        -1.999325         1.649273         0.175572
 H        -0.170247         0.463116        -1.035890
 H         1.234614         2.292571         0.839371
 H         0.328880         3.356612        -0.398826
 H         0.015382         4.567125         1.915358
 H        -0.921911         2.708901         3.903584
 H         0.352030         0.854825         2.465195
 H        -1.408366         0.482759         2.311901
 H        -2.381840         4.346254         2.238989
 H        -2.705259         0.867985         0.509668
 H        -2.166414         1.946486        -0.816156
