19
Iteration:  4237
 O        -0.222524         0.269409        -0.125134
 C        -0.571194         1.423829         0.629405
 C         0.194670         2.677222         0.441354
 C        -0.328783         3.602411         1.606843
 C        -0.978139         2.645140         2.692597
 C        -0.585642         1.256182         2.095393
 C        -1.860549         3.466970         1.817843
 O        -2.733222         2.929428         0.834548
 C        -2.100559         1.612637         0.267168
 H        -0.438279        -0.514429         0.392114
 H         1.274012         2.472004         0.469448
 H         0.074052         3.158935        -0.529677
 H         0.363763         4.530440         1.899344
 H        -1.159360         2.735613         3.772012
 H         0.428731         0.972587         2.385843
 H        -1.348862         0.485201         2.364580
 H        -2.492297         4.333269         2.332087
 H        -2.672651         0.825114         0.633120
 H        -2.209775         1.667788        -0.882929
