19
Iteration:  2012charge 0 multiplicity 1
 O        -0.296326         0.129337        -0.150537
 C        -0.634473         1.368897         0.683072
 C         0.397347         2.600215         0.871683
 C        -0.382283         3.519651         1.841814
 C        -1.218353         2.435428         2.713248
 C        -0.912684         1.031507         2.162686
 C        -1.842708         3.504859         1.794550
 O        -2.509595         3.229609         0.508565
 C        -1.915506         1.993698        -0.017955
 H         0.636902        -0.064956        -0.281770
 H         1.322766         2.202220         1.131134
 H         0.480552         3.013308        -0.154019
 H         0.168517         4.370194         2.273113
 H        -1.582028         2.481112         3.727395
 H         0.000284         0.559281         2.594704
 H        -1.772987         0.442925         2.243167
 H        -2.330648         4.341784         2.165501
 H        -2.676575         1.208278        -0.302994
 H        -1.487478         2.313209        -0.922740
