19
Iteration:  2381
 O        -0.181084         0.252451        -0.108797
 C        -0.682090         1.403560         0.585214
 C         0.337756         2.574352         0.729276
 C        -0.279775         3.538711         1.778494
 C        -1.029242         2.580512         2.696211
 C        -1.057999         1.147488         2.101646
 C        -1.747651         3.490760         1.733109
 O        -2.590100         2.919778         0.801229
 C        -2.019899         1.934444        -0.045193
 H         0.547921        -0.045890         0.465414
 H         1.286147         2.079371         1.082685
 H         0.412405         3.096165        -0.200189
 H         0.223701         4.417244         2.156845
 H        -1.273971         2.718144         3.692100
 H        -0.408271         0.385292         2.604191
 H        -2.155980         0.786819         2.085901
 H        -2.280762         4.314755         2.148897
 H        -2.651910         1.037168        -0.289002
 H        -1.845978         2.473341        -0.976833
