19
Iteration:  2843
 O        -0.315918         0.145310         0.018604
 C        -0.620390         1.433365         0.622603
 C         0.382974         2.758911         0.557214
 C        -0.268877         3.550926         1.653185
 C        -0.969142         2.618614         2.743214
 C        -0.937262         1.183697         2.082214
 C        -1.838873         3.417187         1.797899
 O        -2.674274         2.762830         0.886637
 C        -1.948719         1.929158        -0.021236
 H        -0.106065         0.250066        -0.916461
 H         1.481990         2.571923         0.901220
 H         0.325852         3.287814        -0.382407
 H         0.088927         4.580529         1.955730
 H        -1.041170         2.632396         3.851958
 H        -0.159642         0.565306         2.548714
 H        -1.931783         0.762781         2.108431
 H        -2.220600         4.480685         2.135271
 H        -2.570660         1.016713        -0.188712
 H        -1.857092         2.660469        -0.909846
