19
Iteration:  4700
 O        -0.428534         0.229602        -0.080924
 C        -0.662495         1.453778         0.616233
 C         0.200387         2.769925         0.538188
 C        -0.363920         3.657332         1.659041
 C        -0.908097         2.665863         2.784283
 C        -0.785991         1.222951         2.134161
 C        -1.838706         3.306323         1.906915
 O        -2.495809         2.868751         0.672267
 C        -2.005021         1.703738         0.102621
 H         0.506753        -0.002246        -0.044243
 H         1.306619         2.381638         0.690057
 H         0.242703         3.333605        -0.460107
 H         0.269798         4.433638         2.044867
 H        -0.953986         2.837154         3.832086
 H         0.096974         0.574163         2.442061
 H        -1.623644         0.687345         2.377848
 H        -2.386036         4.092861         2.295927
 H        -2.647169         0.741447         0.161989
 H        -1.898601         2.043705        -0.904451
