19
Iteration:  1120charge 0 multiplicity 1
 O        -0.129129         0.288049        -0.078119
 C        -0.658194         1.371736         0.660524
 C         0.338183         2.698695         0.745522
 C        -0.271437         3.395225         1.889107
 C        -1.179169         2.514727         2.670332
 C        -1.027593         1.084269         2.065343
 C        -1.813879         3.425308         1.782970
 O        -2.553556         3.112022         0.634995
 C        -1.987360         1.881478        -0.088403
 H         0.483064        -0.189888         0.462289
 H         1.428322         2.420647         0.877414
 H         0.277859         3.384143        -0.122241
 H         0.136965         4.364558         2.388462
 H        -1.407467         2.511567         3.708749
 H        -0.299108         0.435543         2.652261
 H        -1.975360         0.611459         2.170406
 H        -2.234623         4.282379         2.204192
 H        -2.797659         1.182584        -0.094077
 H        -1.727002         2.198435        -1.073081
