19
Iteration:  3553charge 0 multiplicity 1
 O        -0.192291         0.291307        -0.154210
 C        -0.642206         1.396421         0.672001
 C         0.274469         2.732110         0.521447
 C        -0.358387         3.608541         1.630916
 C        -0.934972         2.665608         2.688756
 C        -0.630342         1.226514         2.189777
 C        -1.854540         3.434974         1.769475
 O        -2.719533         2.836973         0.801280
 C        -2.102682         1.694478         0.227903
 H        -0.902677         0.134381        -0.812796
 H         1.246954         2.302734         0.721692
 H         0.180796         3.150805        -0.480881
 H         0.028363         4.586507         1.872919
 H        -0.958562         2.839564         3.751385
 H         0.328419         0.638715         2.528854
 H        -1.460240         0.454212         2.443360
 H        -2.341025         4.297128         2.323560
 H        -2.684597         0.772209         0.593432
 H        -2.095256         1.725403        -0.899478
