19
Iteration:  4209
 O        -0.066210         0.353791        -0.062769
 C        -0.668805         1.420040         0.637820
 C         0.163632         2.692589         0.473689
 C        -0.369003         3.546830         1.543224
 C        -0.874600         2.642060         2.679305
 C        -0.665368         1.182045         2.162882
 C        -1.812830         3.462825         1.716783
 O        -2.699090         2.910149         0.872921
 C        -2.228166         1.639186         0.253288
 H        -0.678919        -0.203048        -0.568458
 H         1.185363         2.361968         0.716114
 H         0.183597         3.174308        -0.578135
 H         0.257633         4.247388         1.933039
 H        -0.851653         2.997453         3.705842
 H         0.418203         0.857891         2.360535
 H        -1.464779         0.499472         2.515346
 H        -2.264167         4.345997         2.066541
 H        -2.797063         0.810670         0.863705
 H        -2.511441         1.718494        -0.781324
