19
Iteration:  2912charge 0 multiplicity 1
 O        -0.229100         0.353026        -0.212508
 C        -0.626167         1.366156         0.693116
 C         0.195097         2.682432         0.604496
 C        -0.267693         3.458413         1.807354
 C        -1.085139         2.558571         2.677561
 C        -0.864805         1.094384         2.200932
 C        -1.843827         3.474765         1.777783
 O        -2.418337         3.028616         0.544692
 C        -2.115661         1.696222         0.296558
 H        -0.001789         0.894693        -0.974253
 H         1.344494         2.567049         0.635001
 H        -0.049531         3.233678        -0.278877
 H         0.302955         4.252783         2.212738
 H        -1.174680         2.850132         3.713090
 H         0.051261         0.787482         2.756978
 H        -1.759321         0.517166         2.496217
 H        -2.287047         4.357600         2.060731
 H        -2.859401         1.095030         0.928632
 H        -2.137218         1.420887        -0.770228
