19
Iteration:  4450charge 0 multiplicity 1
 O        -0.243671         0.263327        -0.192028
 C        -0.663058         1.404549         0.718953
 C         0.183565         2.700295         0.497835
 C        -0.306024         3.547700         1.639550
 C        -1.039871         2.581634         2.700130
 C        -0.738172         1.229660         2.201660
 C        -1.792458         3.462699         1.769709
 O        -2.570647         2.890658         0.789364
 C        -2.095644         1.765294         0.170508
 H         0.269929        -0.387502         0.324132
 H         1.281706         2.528707         0.538285
 H         0.008669         3.071699        -0.562025
 H         0.057971         4.566385         2.072652
 H        -0.847313         2.763953         3.776645
 H         0.189819         0.945880         2.725726
 H        -1.542130         0.581740         2.504376
 H        -2.388103         4.367723         2.188512
 H        -2.732518         0.929678         0.289586
 H        -2.084595         1.921545        -1.003418
