19
Iteration:  4872
 O        -0.261702         0.312144        -0.196162
 C        -0.658917         1.379685         0.661461
 C         0.217273         2.671458         0.444767
 C        -0.249539         3.575334         1.664069
 C        -0.948769         2.723021         2.629742
 C        -0.920841         1.260667         2.191306
 C        -1.807749         3.535747         1.837056
 O        -2.597465         2.674416         0.971733
 C        -1.974149         1.738379         0.106262
 H         0.349870        -0.301523         0.275852
 H         1.270800         2.553685         0.531977
 H        -0.023653         2.895840        -0.561113
 H         0.145673         4.536257         2.008969
 H        -0.968414         2.872504         3.724424
 H        -0.191617         0.627637         2.615933
 H        -2.076344         0.980366         2.336223
 H        -2.420747         4.451001         1.934750
 H        -2.597655         0.900319         0.082456
 H        -1.861114         2.137933        -0.973721
