19
Iteration:  1719
 O        -0.124099         0.335933        -0.132116
 C        -0.699068         1.371429         0.589840
 C         0.354577         2.584726         0.737410
 C        -0.273101         3.407400         1.779563
 C        -1.131934         2.554322         2.818206
 C        -1.304051         1.174029         2.096283
 C        -1.749067         3.471671         1.835430
 O        -2.485322         2.936423         0.708299
 C        -1.849676         1.966306        -0.102128
 H         0.631825        -0.013953         0.333116
 H         1.235559         2.073537         1.157856
 H         0.369368         2.968367        -0.267266
 H         0.308640         4.220991         2.171995
 H        -1.504185         2.652365         3.871413
 H        -0.938067         0.167347         2.568206
 H        -2.453245         0.974465         1.989308
 H        -2.169596         4.536811         2.253795
 H        -2.504965         1.145894        -0.463093
 H        -1.623272         2.614809        -1.095466
