19
Iteration:  1151
 O        -0.250604         0.309709        -0.056652
 C        -0.677937         1.463518         0.600760
 C         0.307601         2.665155         0.744975
 C        -0.336114         3.407272         1.885677
 C        -1.189963         2.490707         2.746597
 C        -0.987682         1.141859         2.005930
 C        -1.798414         3.451249         1.788553
 O        -2.444465         2.985824         0.644483
 C        -1.925971         1.898930        -0.074842
 H         0.535619        -0.128687         0.383200
 H         1.214033         2.254911         1.220917
 H         0.471719         3.400231        -0.028797
 H         0.127092         4.335736         2.161490
 H        -1.286771         2.563731         3.796793
 H        -0.188536         0.617465         2.507999
 H        -1.939730         0.623639         2.034554
 H        -2.369174         4.237956         2.215252
 H        -2.683748         1.041436        -0.104900
 H        -1.691302         2.159706        -1.172884
