19
Iteration:  4462
 O        -0.304355         0.192096        -0.063145
 C        -0.637251         1.429528         0.594264
 C         0.266688         2.749734         0.533699
 C        -0.351996         3.560131         1.660675
 C        -0.969371         2.594740         2.672295
 C        -0.712906         1.168242         2.134436
 C        -1.840948         3.507188         1.826513
 O        -2.672351         2.957737         0.744375
 C        -2.087137         1.698574         0.156489
 H         0.618525        -0.018503         0.181253
 H         1.319261         2.473134         0.848676
 H         0.239872         3.312656        -0.444025
 H         0.335408         4.419761         2.015793
 H        -0.823406         2.773321         3.732469
 H         0.267196         0.773977         2.392117
 H        -1.424550         0.352204         2.342522
 H        -2.351282         4.344497         2.378770
 H        -2.683513         0.888190         0.492148
 H        -2.121395         1.842159        -0.987305
