19
Iteration:  3464charge 0 multiplicity 1
 O        -0.109356         0.319503        -0.140677
 C        -0.673397         1.401536         0.651886
 C         0.172002         2.634974         0.462036
 C        -0.365086         3.565909         1.513856
 C        -0.844694         2.660429         2.715529
 C        -0.876573         1.228830         2.162947
 C        -1.819587         3.441205         1.917335
 O        -2.707403         2.760746         0.933840
 C        -2.047278         1.825980         0.050145
 H         0.422240        -0.288994         0.412179
 H         1.268716         2.525426         0.667798
 H         0.102238         3.128462        -0.503008
 H         0.096168         4.524990         1.706286
 H        -0.696005         2.894386         3.709661
 H         0.012333         0.653092         2.668485
 H        -1.887040         0.701498         2.383788
 H        -2.335852         4.289939         2.252254
 H        -2.687015         0.895643         0.123897
 H        -2.008467         2.337030        -0.998821
