19
Iteration:   245
 O        -0.241963         0.305622        -0.171977
 C        -0.666388         1.417939         0.691988
 C         0.373200         2.508506         0.873370
 C        -0.338700         3.466990         1.817893
 C        -1.221824         2.490710         2.713377
 C        -0.967822         1.069271         2.093428
 C        -1.811979         3.409515         1.777036
 O        -2.506869         3.184123         0.559985
 C        -1.953452         1.902425        -0.018256
 H         0.627006         0.076456         0.196033
 H         1.349408         2.034783         1.258092
 H         0.659479         3.091839        -0.157603
 H         0.131435         4.492766         2.183886
 H        -1.267484         2.659412         3.737710
 H        -0.062358         0.649551         2.586502
 H        -1.945821         0.444787         2.237355
 H        -2.279194         4.230374         2.218545
 H        -2.783691         1.223518        -0.049752
 H        -1.642582         2.138570        -1.018400
