19
Iteration:  2978
 O        -0.181274         0.260904         0.029306
 C        -0.685356         1.408950         0.643838
 C         0.118922         2.702871         0.547243
 C        -0.323608         3.498637         1.716908
 C        -1.037340         2.552693         2.686092
 C        -0.830532         1.073232         2.145256
 C        -1.763108         3.472759         1.898545
 O        -2.521630         3.003957         0.662295
 C        -2.045023         1.837406         0.052826
 H        -0.232811         0.235134        -0.953208
 H         1.239519         2.563772         0.595347
 H        -0.047904         3.201588        -0.375668
 H         0.318688         4.319523         2.068719
 H        -1.037360         2.601774         3.771808
 H         0.071643         0.598998         2.536223
 H        -1.702230         0.409564         2.304027
 H        -2.279157         4.238551         2.337302
 H        -2.719537         0.982332         0.147582
 H        -1.802966         2.109793        -0.982938
