19
Iteration:  2963charge 0 multiplicity 1
 O        -0.151589         0.246108        -0.010927
 C        -0.713134         1.371136         0.654913
 C         0.206491         2.661014         0.546806
 C        -0.347102         3.489390         1.767855
 C        -1.010318         2.417629         2.729482
 C        -0.690626         1.099721         2.206198
 C        -1.925800         3.476686         1.781709
 O        -2.511301         3.204468         0.608059
 C        -2.137321         1.779909         0.087059
 H        -0.241089         0.553319        -0.937663
 H         1.226622         2.266737         0.788634
 H         0.130734         3.101618        -0.475627
 H         0.228666         4.284241         2.202609
 H        -0.971520         2.759676         3.747344
 H         0.343041         0.801886         2.476977
 H        -1.360446         0.295230         2.435017
 H        -2.485044         4.278080         2.391038
 H        -2.972268         1.129158         0.361121
 H        -2.109134         1.834840        -1.033497
