19
Iteration:  2463
 O        -0.259737         0.314620        -0.114952
 C        -0.714454         1.424841         0.664514
 C         0.349255         2.535108         0.751020
 C        -0.275999         3.474905         1.755976
 C        -1.119902         2.569384         2.671102
 C        -0.892416         1.162623         2.129034
 C        -1.822832         3.500617         1.751363
 O        -2.539100         2.988416         0.612086
 C        -2.034539         1.811252         0.135972
 H         0.377972         0.708009        -0.716960
 H         1.338147         2.191842         1.066341
 H         0.640860         3.080804        -0.206525
 H         0.289583         4.432483         2.033336
 H        -1.165263         2.659446         3.812734
 H         0.016652         0.744510         2.578771
 H        -1.691554         0.453803         2.283185
 H        -2.393740         4.328575         2.192638
 H        -2.577821         0.951781         0.485189
 H        -2.161431         1.911943        -0.997841
