19
Iteration:  3859charge 0 multiplicity 1
 O        -0.045192         0.373120        -0.082106
 C        -0.764077         1.339535         0.660311
 C        -0.001759         2.684220         0.391478
 C        -0.355519         3.576922         1.568597
 C        -0.853530         2.600600         2.728249
 C        -0.545156         1.218345         2.237177
 C        -1.792145         3.477516         1.772170
 O        -2.772321         2.843478         0.862704
 C        -2.113189         1.703226         0.199762
 H        -0.593567        -0.397341        -0.256786
 H         1.194983         2.612326         0.372579
 H        -0.248412         3.182891        -0.571727
 H         0.344598         4.441616         1.571874
 H        -0.715692         2.917212         3.771056
 H         0.455604         1.016506         2.391957
 H        -1.313104         0.504839         2.662308
 H        -2.244741         4.308950         2.185988
 H        -2.776277         0.913849         0.422291
 H        -2.152496         1.885014        -0.928639
