19
Iteration:  3188charge 0 multiplicity 1
 O        -0.336417         0.195201        -0.097197
 C        -0.632863         1.433628         0.645077
 C         0.268722         2.688320         0.634892
 C        -0.371040         3.597931         1.729485
 C        -1.050813         2.537070         2.616774
 C        -0.634248         1.095193         2.131022
 C        -1.873147         3.467817         1.813262
 O        -2.619686         3.025389         0.694916
 C        -2.066854         1.783588         0.126099
 H         0.600961         0.270498        -0.356158
 H         1.414022         2.548432         1.037828
 H         0.494279         3.130015        -0.357387
 H         0.026396         4.407220         2.260974
 H        -1.028563         2.639798         3.652967
 H         0.326130         0.880805         2.533998
 H        -1.398357         0.306461         2.378720
 H        -2.393321         4.188194         2.383295
 H        -2.725010         0.920802         0.327322
 H        -1.941890         1.992315        -0.992511
