19
Iteration:   765charge 0 multiplicity 1
 O        -0.087325         0.332633        -0.111620
 C        -0.621658         1.358256         0.647989
 C         0.334981         2.527509         0.762096
 C        -0.296938         3.394542         1.843472
 C        -1.216925         2.493687         2.736573
 C        -1.079106         1.110265         2.105681
 C        -1.829838         3.457762         1.756156
 O        -2.555097         3.093303         0.660138
 C        -1.946779         2.019838        -0.088206
 H         0.663044        -0.081513         0.352063
 H         1.325913         2.029500         0.951468
 H         0.387034         2.878778        -0.331440
 H         0.168047         4.343200         2.289750
 H        -1.382406         2.636071         3.784046
 H        -0.356536         0.489838         2.596355
 H        -2.117128         0.580284         2.085019
 H        -2.181082         4.250549         2.314022
 H        -2.747833         1.279235        -0.059461
 H        -1.836177         2.499057        -1.131946
