19
Iteration:  1882
 O        -0.400935         0.201257        -0.127632
 C        -0.605243         1.409950         0.652607
 C         0.375792         2.572735         0.851295
 C        -0.319713         3.412671         1.865315
 C        -1.237581         2.485707         2.701034
 C        -0.945043         1.179130         2.081187
 C        -1.925434         3.457196         1.773071
 O        -2.468806         3.088912         0.595830
 C        -1.780341         2.029877        -0.067448
 H         0.503139        -0.189402         0.025007
 H         1.444189         2.327092         1.289910
 H         0.430924         3.043744        -0.151996
 H         0.232267         4.150353         2.402828
 H        -1.432304         2.528637         3.761097
 H        -0.099228         0.744282         2.670577
 H        -1.678691         0.431436         2.150233
 H        -2.544626         4.303121         2.154183
 H        -2.422687         1.122681        -0.179534
 H        -1.507825         2.388822        -1.109236
