19
Iteration:  3083
 O        -0.372020         0.249592        -0.048236
 C        -0.614714         1.461270         0.610711
 C         0.246891         2.725062         0.626780
 C        -0.323883         3.565450         1.724217
 C        -1.010796         2.541652         2.757729
 C        -0.803119         1.155632         2.094027
 C        -1.821350         3.482913         1.760460
 O        -2.595799         2.865723         0.768565
 C        -2.005418         1.824378         0.018954
 H         0.575348         0.046888        -0.224854
 H         1.228567         2.433792         0.943734
 H         0.340593         3.383063        -0.306550
 H         0.217511         4.437503         1.982504
 H        -0.845020         2.523314         3.836579
 H         0.086390         0.607208         2.542045
 H        -1.614859         0.421514         2.216952
 H        -2.333811         4.261928         2.220614
 H        -2.607614         0.900899        -0.043244
 H        -1.818374         2.118603        -1.008838
