19
Iteration:  1428charge 0 multiplicity 1
 O        -0.252434         0.363200        -0.144460
 C        -0.717196         1.403400         0.641896
 C         0.383042         2.532416         0.905910
 C        -0.328310         3.457248         1.867484
 C        -1.156063         2.466994         2.648865
 C        -0.933550         1.070301         2.166007
 C        -1.888637         3.482216         1.725002
 O        -2.559862         3.049864         0.580861
 C        -1.929609         1.986387        -0.049721
 H         0.605167         0.068543         0.116924
 H         1.177267         2.074213         1.461568
 H         0.558173         2.817034        -0.097385
 H         0.225605         4.219267         2.227108
 H        -1.172221         2.644113         3.671068
 H         0.076569         0.602640         2.430414
 H        -1.563808         0.265465         2.452433
 H        -2.083638         4.544094         1.954310
 H        -2.649928         1.136469        -0.162649
 H        -1.577896         2.295340        -1.112535
