19
Iteration:  2790charge 0 multiplicity 1
 O        -0.141084         0.261962        -0.068689
 C        -0.631747         1.380685         0.641213
 C         0.365756         2.535586         0.654805
 C        -0.287918         3.475541         1.594949
 C        -0.987187         2.605997         2.620575
 C        -0.843644         1.163898         2.179053
 C        -1.831565         3.490846         1.708793
 O        -2.823215         2.892537         0.897474
 C        -2.123033         1.975877         0.026958
 H         0.432012         0.595893        -0.762132
 H         1.406101         2.242779         1.168888
 H         0.793338         2.842947        -0.290936
 H         0.134124         4.428336         1.999249
 H        -0.840900         2.852643         3.696510
 H         0.073268         0.696491         2.665591
 H        -1.709120         0.526170         2.397630
 H        -2.224411         4.391922         2.402171
 H        -2.768728         1.030456         0.074315
 H        -2.040024         2.429497        -0.929513
