19
Iteration:  2679charge 0 multiplicity 1
 O        -0.177907         0.398972        -0.214354
 C        -0.667038         1.378788         0.662802
 C         0.300602         2.607579         0.734768
 C        -0.259385         3.526180         1.736237
 C        -1.050755         2.615568         2.618459
 C        -0.824193         1.112745         2.171114
 C        -1.793640         3.528138         1.691562
 O        -2.611376         2.965466         0.665980
 C        -2.082138         1.743751         0.225878
 H        -0.877085        -0.303297        -0.300400
 H         1.252139         2.116955         1.146537
 H         0.406499         3.126484        -0.167728
 H         0.254817         4.326087         2.218666
 H        -1.346199         2.675431         3.645250
 H         0.086355         0.612176         2.604433
 H        -1.751282         0.584655         2.440001
 H        -2.269063         4.339908         2.076391
 H        -2.670903         0.830996         0.651356
 H        -2.164324         1.773773        -0.844859
