19
Iteration:  2512
 O        -0.113781         0.244564        -0.016509
 C        -0.706376         1.381692         0.624713
 C         0.136064         2.736118         0.545507
 C        -0.334586         3.500211         1.788749
 C        -1.085070         2.497533         2.727997
 C        -0.902355         1.166136         2.032544
 C        -1.809419         3.434986         1.866752
 O        -2.377997         3.142222         0.609622
 C        -2.099311         1.738045         0.071456
 H        -0.100009        -0.515078         0.621173
 H         1.237498         2.493332         0.597508
 H         0.071361         3.272269        -0.392761
 H         0.221677         4.304542         2.217925
 H        -1.089191         2.575229         3.818774
 H         0.027639         0.676240         2.361947
 H        -1.699520         0.402589         2.271466
 H        -2.325519         4.337206         2.338473
 H        -2.876289         1.024784         0.537031
 H        -2.210642         1.848775        -0.965920
