19
Iteration:  2289charge 0 multiplicity 1
 O        -0.076362         0.241734        -0.081172
 C        -0.640336         1.431656         0.575605
 C         0.301835         2.710423         0.663147
 C        -0.286933         3.427521         1.804088
 C        -1.206722         2.463099         2.691517
 C        -0.996486         1.065125         2.120979
 C        -1.754420         3.450876         1.802283
 O        -2.484288         3.175186         0.576889
 C        -2.072105         1.862731         0.071074
 H        -0.221814        -0.424141         0.650039
 H         1.238767         2.206518         0.826129
 H         0.320798         3.266455        -0.349167
 H         0.303264         4.123752         2.342981
 H        -1.466206         2.503150         3.768124
 H        -0.168691         0.673821         2.734041
 H        -2.010485         0.688839         2.215683
 H        -2.141495         4.318385         2.327953
 H        -2.861318         1.184386         0.522594
 H        -2.380994         1.916241        -0.932507
