19
Iteration:  1903charge 0 multiplicity 1
 O        -0.381180         0.275528        -0.099441
 C        -0.709503         1.409573         0.631473
 C         0.432819         2.661560         0.826762
 C        -0.259573         3.460941         1.955042
 C        -1.208816         2.506671         2.788143
 C        -1.045774         1.110413         2.131048
 C        -1.765468         3.488589         1.727251
 O        -2.526134         2.908830         0.589491
 C        -1.836363         2.009490        -0.204783
 H         0.519494        -0.045763        -0.074100
 H         1.402156         2.176638         1.158838
 H         0.578194         3.234422        -0.117548
 H         0.158730         4.316624         2.451640
 H        -1.393925         2.735262         3.826212
 H        -0.295556         0.466495         2.687512
 H        -1.945459         0.586972         2.165350
 H        -2.168815         4.412887         2.238203
 H        -2.509498         1.144412        -0.480209
 H        -1.358630         2.311131        -1.164356
