19
Iteration:  2422
 O        -0.156060         0.254658        -0.005941
 C        -0.662401         1.404641         0.662251
 C         0.284770         2.622123         0.666738
 C        -0.271034         3.507776         1.734137
 C        -1.080620         2.516849         2.689446
 C        -0.935867         1.105522         2.128309
 C        -1.825947         3.456637         1.749203
 O        -2.605271         2.940883         0.748061
 C        -1.944713         2.030625        -0.057035
 H        -0.940918        -0.323711        -0.169994
 H         1.331584         2.351512         0.908407
 H         0.317765         3.008826        -0.410049
 H         0.258506         4.431902         2.085017
 H        -1.239250         2.727573         3.739783
 H        -0.164762         0.494641         2.601415
 H        -1.840524         0.503780         2.337127
 H        -2.245208         4.339433         2.162636
 H        -2.762694         1.248716        -0.204657
 H        -1.531050         2.415392        -1.000374
