19
Iteration:   374
 O        -0.360179         0.337959        -0.162396
 C        -0.641766         1.437793         0.701738
 C         0.387271         2.512940         0.834697
 C        -0.319063         3.459981         1.876060
 C        -1.204909         2.529178         2.685271
 C        -0.983682         1.054487         2.105913
 C        -1.836138         3.498637         1.775045
 O        -2.524663         3.062725         0.576093
 C        -1.828042         1.930002        -0.079081
 H         0.577306         0.027553        -0.004824
 H         1.328422         2.135296         1.320617
 H         0.584810         3.039136        -0.036431
 H         0.269283         4.377860         2.374435
 H        -1.320855         2.661370         3.715037
 H        -0.220133         0.406426         2.634433
 H        -1.818991         0.437270         2.163990
 H        -2.459774         4.179035         2.259602
 H        -2.466987         1.021283         0.031465
 H        -1.442063         2.291822        -1.087555
