19
Iteration:  3342charge 0 multiplicity 1
 O        -0.138632         0.338331        -0.132431
 C        -0.689428         1.404062         0.572060
 C         0.208186         2.727352         0.473929
 C        -0.279826         3.545477         1.717188
 C        -1.016566         2.525292         2.634942
 C        -0.804980         1.147192         2.149674
 C        -1.789324         3.494177         1.853360
 O        -2.603967         2.974495         0.695558
 C        -2.171282         1.673556         0.261626
 H         0.716113         0.086689         0.312764
 H         1.246751         2.385915         0.633826
 H         0.021316         3.176879        -0.483682
 H         0.282505         4.387142         2.182582
 H        -1.102910         2.807578         3.745338
 H         0.112481         0.734132         2.614513
 H        -1.558986         0.417093         2.582228
 H        -2.384310         4.156154         2.531242
 H        -2.971055         1.041575         0.578712
 H        -2.195919         1.657298        -0.876237
