19
Iteration:  1702
 O        -0.071957         0.297693        -0.041139
 C        -0.738627         1.425548         0.581316
 C         0.311765         2.503681         0.801087
 C        -0.217278         3.376250         1.894289
 C        -1.086824         2.509678         2.704021
 C        -1.227465         1.166234         2.086093
 C        -1.794535         3.525514         1.765059
 O        -2.594016         2.960039         0.733694
 C        -1.941938         2.065453        -0.253215
 H         0.618960        -0.035462         0.515851
 H         1.308677         2.044489         1.075250
 H         0.592998         3.089330        -0.117018
 H         0.313882         4.278286         2.316095
 H        -0.879071         2.512520         3.792060
 H        -0.599798         0.471856         2.534952
 H        -2.199725         0.705686         2.077801
 H        -2.237358         4.360472         2.139243
 H        -2.697326         1.281225        -0.434510
 H        -1.464097         2.358228        -1.130388
