19
Iteration:  2222charge 0 multiplicity 1
 O        -0.319118         0.206639        -0.074215
 C        -0.646003         1.375243         0.679920
 C         0.305659         2.594966         0.774484
 C        -0.333549         3.466099         1.845692
 C        -1.139556         2.492062         2.696603
 C        -0.911188         1.104895         2.155795
 C        -1.851819         3.535637         1.756520
 O        -2.514174         3.069808         0.585357
 C        -1.830072         1.917538        -0.009554
 H        -0.430762         0.462102        -0.998681
 H         1.313696         2.349933         1.099458
 H         0.417008         3.264562        -0.132324
 H         0.248990         4.199930         2.326889
 H        -1.201585         2.637817         3.743846
 H        -0.074983         0.577227         2.630801
 H        -1.854717         0.658282         2.145231
 H        -2.347317         4.442265         2.084019
 H        -2.549342         1.068234        -0.055270
 H        -1.544225         2.133029        -1.017807
