19
Iteration:  4355
 O        -0.324498         0.292294        -0.156570
 C        -0.707532         1.432228         0.663504
 C         0.103927         2.671758         0.467543
 C        -0.333783         3.648945         1.578833
 C        -0.899224         2.634721         2.754875
 C        -0.633489         1.209528         2.341014
 C        -1.794200         3.407458         1.789378
 O        -2.660798         2.786891         0.811542
 C        -2.004823         1.793755         0.037930
 H         0.115181        -0.361719         0.425569
 H         1.225634         2.553700         0.579397
 H         0.020772         3.045587        -0.545890
 H         0.260515         4.669970         1.657444
 H        -0.831172         2.887080         3.810322
 H         0.373675         0.900004         2.570539
 H        -1.454183         0.433010         2.668415
 H        -2.392418         4.143876         2.448204
 H        -2.804647         0.928132         0.058443
 H        -1.761072         2.007678        -0.955104
