19
Iteration:  1608charge 0 multiplicity 1
 O        -0.016116         0.264016        -0.077563
 C        -0.689960         1.396767         0.646209
 C         0.291213         2.565288         0.728445
 C        -0.337539         3.325476         1.877239
 C        -1.267916         2.425248         2.719027
 C        -1.057943         1.080830         2.006289
 C        -1.808804         3.568897         1.747681
 O        -2.443984         3.224486         0.551437
 C        -2.062249         1.953830         0.080655
 H         0.784711         0.115113         0.498460
 H         1.283580         2.225947         0.747121
 H         0.428379         3.188801        -0.154051
 H         0.307542         4.035838         2.413393
 H        -1.166922         2.583520         3.722933
 H        -0.197286         0.510590         2.602220
 H        -1.880691         0.356984         2.068952
 H        -2.360148         4.347174         2.232246
 H        -2.786652         1.191630         0.503728
 H        -2.083720         1.898738        -1.098159
