19
Iteration:  2823charge 0 multiplicity 1
 O        -0.271821         0.300898        -0.118743
 C        -0.677277         1.373580         0.661420
 C         0.303918         2.533397         0.603162
 C        -0.321634         3.545782         1.632110
 C        -0.942219         2.673359         2.670095
 C        -0.954617         1.234540         2.207191
 C        -1.850072         3.527448         1.763927
 O        -2.665023         2.645752         0.932243
 C        -1.870263         1.979172        -0.022218
 H         0.007713         0.534895        -1.007554
 H         1.206245         2.149694         1.259318
 H         0.459595         2.824720        -0.393649
 H         0.235366         4.460104         1.928898
 H        -0.751568         3.046774         3.699005
 H        -0.086166         0.669971         2.658778
 H        -1.901699         0.708900         2.348914
 H        -2.409417         4.421816         2.333023
 H        -2.651238         1.179333        -0.263565
 H        -1.612791         2.494064        -0.963378
