19
Iteration:  4625
 O        -0.253749         0.233551        -0.147108
 C        -0.709567         1.433601         0.669428
 C         0.328625         2.686672         0.607668
 C        -0.286286         3.630732         1.649445
 C        -0.901269         2.642008         2.700227
 C        -0.909758         1.231836         2.194497
 C        -1.797562         3.422604         1.758032
 O        -2.635718         2.782076         0.841281
 C        -2.114400         1.763082         0.064120
 H         0.653697         0.549162        -0.380673
 H         1.227723         2.311586         0.985386
 H         0.473652         3.147038        -0.416206
 H         0.265264         4.557483         1.840156
 H        -0.828794         3.081388         3.672209
 H        -0.165530         0.457174         2.631030
 H        -1.813179         0.707558         2.196537
 H        -2.317497         4.186327         2.246309
 H        -2.827346         0.935153         0.121662
 H        -1.993893         2.138658        -0.924552
