19
Iteration:  3482charge 0 multiplicity 1
 O        -0.108029         0.260625        -0.039843
 C        -0.677879         1.505302         0.511528
 C         0.260471         2.780038         0.413716
 C        -0.331713         3.585695         1.633894
 C        -0.875267         2.622964         2.629301
 C        -0.892180         1.239431         2.099550
 C        -1.826294         3.479278         1.803801
 O        -2.654436         2.695180         1.038031
 C        -2.099181         1.760695         0.089526
 H        -0.313943        -0.479306         0.567930
 H         1.259442         2.487170         0.651850
 H         0.095094         3.160175        -0.603140
 H         0.155929         4.548842         2.005325
 H        -0.633417         2.832743         3.754022
 H        -0.265189         0.486261         2.528731
 H        -1.913882         0.839818         2.251196
 H        -2.435425         4.229074         2.329367
 H        -2.688613         0.801240         0.037235
 H        -1.984288         2.174347        -0.869946
