19
Iteration:  1023charge 0 multiplicity 1
 O        -0.116677         0.259452        -0.107735
 C        -0.685627         1.371921         0.660411
 C         0.253075         2.600389         0.763271
 C        -0.354728         3.488114         1.859663
 C        -1.116235         2.484743         2.788648
 C        -1.052455         1.004228         2.132744
 C        -1.831288         3.494734         1.848743
 O        -2.540968         3.135311         0.606109
 C        -1.910079         1.918687        -0.188950
 H         0.721229         0.023053         0.256350
 H         1.300326         2.349478         0.971016
 H         0.384206         3.097853        -0.195839
 H         0.282172         4.475791         2.000630
 H        -1.302834         2.771892         3.764743
 H        -0.217942         0.373661         2.554561
 H        -1.855474         0.356393         2.197176
 H        -2.311651         4.302973         2.264353
 H        -2.798208         1.298782        -0.271869
 H        -1.547858         2.338539        -1.096066
