19
Iteration:  2306charge 0 multiplicity 1
 O        -0.148856         0.281729        -0.028474
 C        -0.675169         1.399418         0.654013
 C         0.251197         2.637089         0.615890
 C        -0.332208         3.420618         1.860522
 C        -1.123329         2.485064         2.735711
 C        -0.934422         1.118349         2.118337
 C        -1.851232         3.468338         1.817157
 O        -2.413924         3.137445         0.566506
 C        -2.000719         1.882646         0.018878
 H        -0.863698        -0.402445        -0.065155
 H         1.359471         2.471855         0.721274
 H         0.052494         3.222412        -0.264159
 H         0.205784         4.316589         2.168214
 H        -1.115028         2.633384         3.792177
 H        -0.142705         0.450327         2.502719
 H        -1.729438         0.345931         2.193245
 H        -2.437866         4.261904         2.242304
 H        -2.800617         1.140589         0.148679
 H        -1.755070         1.980013        -1.099168
