19
Iteration:  2351
 O        -0.250844         0.262793        -0.089690
 C        -0.621929         1.431628         0.650945
 C         0.452761         2.510935         0.752887
 C        -0.298229         3.445179         1.735237
 C        -1.130453         2.569526         2.741413
 C        -0.968308         1.150514         2.122725
 C        -1.875399         3.466396         1.787903
 O        -2.628712         3.039820         0.666184
 C        -1.991281         1.914422         0.011024
 H         0.296647         0.523428        -0.874333
 H         1.424603         2.035926         1.018108
 H         0.547559         3.004726        -0.191064
 H         0.104356         4.283161         2.163625
 H        -1.083535         2.697113         3.788595
 H        -0.128918         0.699097         2.664041
 H        -1.694677         0.417947         2.358420
 H        -2.174995         4.472965         2.002018
 H        -2.416572         0.966393         0.078559
 H        -1.849808         2.251538        -1.059427
