19
Iteration:  1138
 O        -0.237946         0.258332        -0.036018
 C        -0.625856         1.531548         0.541610
 C         0.362867         2.697601         0.731091
 C        -0.204128         3.433593         1.999405
 C        -1.137503         2.467336         2.748754
 C        -1.062803         1.163432         2.055091
 C        -1.879755         3.486988         1.820106
 O        -2.543556         2.989382         0.558411
 C        -1.945955         1.866592        -0.103675
 H         0.473486         0.020431         0.536081
 H         1.364572         2.295826         0.788719
 H         0.468689         3.233688        -0.219079
 H         0.366089         4.033600         2.527158
 H        -1.176025         2.474962         3.831425
 H        -0.279611         0.550225         2.402400
 H        -1.913545         0.408695         2.004647
 H        -2.580313         4.272133         2.201986
 H        -2.580342         0.916742         0.097258
 H        -1.956328         2.128838        -1.247083
