19
Iteration:  3060charge 0 multiplicity 1
 O        -0.341459         0.189176        -0.149890
 C        -0.633056         1.403641         0.671189
 C         0.349130         2.601238         0.595441
 C        -0.310562         3.521372         1.657516
 C        -0.994861         2.634647         2.710096
 C        -0.822959         1.216076         2.271310
 C        -1.939010         3.392982         1.779913
 O        -2.718708         2.839024         0.855017
 C        -1.882996         2.027317        -0.038316
 H         0.413092         0.409164        -0.733881
 H         1.299838         2.306651         0.919593
 H         0.412469         2.936046        -0.506132
 H        -0.006119         4.452004         1.957081
 H        -0.951123         2.797046         3.767116
 H         0.201942         0.891298         2.641756
 H        -1.497520         0.398215         2.618015
 H        -2.355001         4.202474         2.369532
 H        -2.339222         1.060048        -0.354481
 H        -1.652443         2.577027        -0.925085
