19
Iteration:  2933charge 0 multiplicity 1
 O        -0.269058         0.313179        -0.150805
 C        -0.667785         1.394443         0.631520
 C         0.248902         2.714369         0.656351
 C        -0.328208         3.524302         1.808552
 C        -1.175041         2.453925         2.664327
 C        -0.692927         1.096042         2.159632
 C        -1.819713         3.529209         1.707843
 O        -2.399292         3.113616         0.530068
 C        -2.194425         1.649573         0.353225
 H         0.129183         0.715011        -0.951711
 H         1.324894         2.295665         0.872040
 H         0.366240         3.137310        -0.281472
 H         0.281197         4.265021         2.229596
 H        -1.390886         2.604429         3.715055
 H         0.297321         0.795558         2.536042
 H        -1.368736         0.257621         2.186555
 H        -2.403606         4.287653         2.170531
 H        -2.706987         1.114941         1.153289
 H        -2.516693         1.418102        -0.687389
