19
Iteration:  3124
 O         0.053102         0.400844        -0.172838
 C        -0.686793         1.378758         0.671356
 C         0.075065         2.616808         0.506423
 C        -0.317979         3.422643         1.744024
 C        -1.053594         2.510169         2.728366
 C        -0.855436         1.093162         2.197867
 C        -1.796066         3.509248         1.830077
 O        -2.529162         3.110821         0.664673
 C        -2.157060         1.769271         0.148120
 H        -0.083301        -0.429921         0.305758
 H         1.080839         2.260193         0.660447
 H        -0.100323         3.023780        -0.498723
 H         0.169678         4.297787         1.940990
 H        -0.995027         2.774030         3.737974
 H         0.091204         0.747847         2.582891
 H        -1.752919         0.411032         2.358314
 H        -2.253357         4.388015         2.233192
 H        -2.916308         1.066507         0.608942
 H        -2.342501         1.741328        -0.924593
