19
Iteration:  2690
 O        -0.103468         0.328436        -0.221095
 C        -0.641412         1.436192         0.628895
 C         0.359235         2.589674         0.727171
 C        -0.266297         3.500663         1.809012
 C        -1.091189         2.534544         2.641816
 C        -0.850877         1.196498         2.136709
 C        -1.833205         3.565959         1.704009
 O        -2.622759         3.041852         0.630521
 C        -2.176434         1.679301         0.257565
 H        -0.892885        -0.176612        -0.520261
 H         1.450386         2.250823         0.982891
 H         0.497098         2.982673        -0.234880
 H         0.366059         4.306068         2.112173
 H        -1.024190         2.619080         3.713788
 H         0.111986         0.899945         2.649106
 H        -1.570170         0.402897         2.377325
 H        -2.273660         4.390692         2.123766
 H        -2.875207         1.004380         0.919233
 H        -2.396180         1.428553        -0.750538
