19
Iteration:  4846charge 0 multiplicity 1
 O        -0.199777         0.306019        -0.118936
 C        -0.694223         1.406080         0.623475
 C         0.322996         2.611532         0.530451
 C        -0.323140         3.548409         1.521287
 C        -0.898549         2.621779         2.662287
 C        -0.803582         1.194626         2.246674
 C        -1.804968         3.466905         1.809749
 O        -2.773904         2.845555         0.897281
 C        -2.126274         1.801254         0.103971
 H         0.761053         0.407437         0.088526
 H         1.279406         2.342657         1.056929
 H         0.676480         2.886895        -0.534099
 H        -0.074434         4.611267         1.632822
 H        -0.652299         2.843153         3.694888
 H         0.040611         0.580201         2.596441
 H        -1.704202         0.770633         2.489140
 H        -2.284113         4.358519         2.210077
 H        -2.786019         0.893779         0.039570
 H        -1.990113         2.125000        -0.904461
