19
Iteration:   130
 O        -0.280834         0.353092        -0.152277
 C        -0.659819         1.433540         0.655365
 C         0.428260         2.549269         0.838468
 C        -0.277606         3.380437         1.909285
 C        -1.230966         2.522845         2.696807
 C        -1.017010         1.046664         2.120703
 C        -1.766277         3.560201         1.726308
 O        -2.606453         3.049085         0.583729
 C        -1.926125         1.936175        -0.052538
 H         0.523273        -0.061555         0.217661
 H         1.434322         2.149926         1.316172
 H         0.582659         3.098054        -0.033606
 H         0.281570         4.239520         2.249690
 H        -1.355334         2.485504         3.775739
 H        -0.016454         0.642788         2.625798
 H        -1.795800         0.337648         2.276787
 H        -2.123139         4.544256         1.949401
 H        -2.562179         1.017561        -0.064214
 H        -1.622490         2.026836        -1.161999
