19
Iteration:   144
 O        -0.264443         0.352485        -0.126912
 C        -0.640880         1.446966         0.669530
 C         0.448096         2.497105         0.825569
 C        -0.281572         3.406672         1.804586
 C        -1.341564         2.441775         2.683390
 C        -0.923545         1.160329         2.130767
 C        -1.831843         3.438766         1.731544
 O        -2.534516         3.137480         0.588579
 C        -1.986860         1.909587        -0.035216
 H         0.524876        -0.080749         0.314227
 H         1.338547         1.843576         1.247208
 H         0.980473         2.880279        -0.076981
 H         0.216352         4.164076         2.341555
 H        -1.369450         2.730602         3.781319
 H         0.029010         0.850268         2.646679
 H        -1.612385         0.332889         2.109256
 H        -2.308474         4.309066         2.341338
 H        -2.764962         1.229518        -0.028834
 H        -1.795244         2.351931        -1.000302
