19
Iteration:  2182charge 0 multiplicity 1
 O         0.047722         0.261466         0.047750
 C        -0.690270         1.439281         0.585067
 C         0.311872         2.511328         0.704119
 C        -0.244958         3.341695         1.844497
 C        -1.078294         2.539923         2.795872
 C        -1.162545         1.171795         2.086495
 C        -1.752258         3.478649         1.751935
 O        -2.657804         3.069530         0.682459
 C        -2.009567         2.013781        -0.161006
 H        -0.618519        -0.385362        -0.297568
 H         1.255675         2.049538         0.999457
 H         0.487486         3.046364        -0.241781
 H         0.246734         4.223127         2.105490
 H        -1.054834         2.701147         3.852635
 H        -0.477843         0.330210         2.400926
 H        -2.220016         0.734630         2.220625
 H        -2.150621         4.305660         2.267083
 H        -2.723161         1.209116        -0.355352
 H        -1.695717         2.593777        -1.117479
