19
Iteration:   171charge 0 multiplicity 1
 O        -0.234522         0.257128        -0.150970
 C        -0.660275         1.345105         0.691859
 C         0.266806         2.669539         0.819061
 C        -0.357071         3.449325         1.921401
 C        -1.122615         2.447884         2.736480
 C        -0.993400         1.028144         2.108647
 C        -1.849985         3.535476         1.789209
 O        -2.439229         3.206716         0.484656
 C        -1.934409         1.851982        -0.042896
 H         0.517257        -0.222644         0.316658
 H         1.206453         2.293923         1.083335
 H         0.537490         3.130699        -0.150882
 H         0.173898         4.401977         2.228507
 H        -1.128594         2.566410         3.789975
 H        -0.128799         0.546885         2.527589
 H        -1.880674         0.311379         2.167783
 H        -2.312075         4.322368         2.277703
 H        -2.873058         1.194435        -0.010346
 H        -1.755035         2.167811        -1.068515
