19
Iteration:  1316charge 0 multiplicity 1
 O        -0.323022         0.338662        -0.205337
 C        -0.588981         1.395815         0.724161
 C         0.372233         2.611825         0.845394
 C        -0.321388         3.508783         1.874349
 C        -1.196897         2.475553         2.643821
 C        -1.046849         1.043403         2.079844
 C        -1.816998         3.508258         1.728448
 O        -2.468929         3.048181         0.602033
 C        -1.892229         1.842564         0.035896
 H         0.559289         0.035239         0.070083
 H         1.395652         2.330939         1.129638
 H         0.427222         3.220698        -0.062901
 H         0.301453         4.465512         2.253572
 H        -1.421011         2.689553         3.718428
 H        -0.157448         0.703770         2.675535
 H        -1.977444         0.389211         2.203175
 H        -2.470179         4.285058         2.174627
 H        -2.619429         0.949942         0.127628
 H        -1.709670         2.165573        -1.033691
