19
Iteration:  3692charge 0 multiplicity 1
 O        -0.062252         0.366940        -0.121898
 C        -0.738282         1.370913         0.673130
 C         0.164305         2.668928         0.468467
 C        -0.400336         3.600031         1.470909
 C        -0.821856         2.637755         2.685474
 C        -0.657121         1.167334         2.228645
 C        -1.855581         3.465799         1.834335
 O        -2.713222         2.775804         0.932606
 C        -2.130916         1.785193         0.110475
 H        -0.582318        -0.443111         0.010541
 H         1.205652         2.398292         0.843547
 H         0.050548         2.872095        -0.607750
 H        -0.019302         4.560257         1.828041
 H        -0.774667         2.930393         3.718232
 H         0.330803         0.858619         2.426214
 H        -1.497568         0.539478         2.669885
 H        -2.447760         4.374446         2.255164
 H        -2.893677         0.995093        -0.045178
 H        -1.916388         2.333553        -0.927263
