19
Iteration:   152charge 0 multiplicity 1
 O        -0.241495         0.301084        -0.134539
 C        -0.654507         1.446739         0.608506
 C         0.424444         2.462808         0.828908
 C        -0.364519         3.471042         1.803848
 C        -1.293463         2.464462         2.666939
 C        -0.908706         1.139658         2.166607
 C        -1.849278         3.396594         1.739264
 O        -2.469783         3.161314         0.587872
 C        -1.984606         1.996777         0.001414
 H         0.506561        -0.038787         0.397390
 H         1.324955         1.961699         1.358755
 H         0.717137         2.907729        -0.068335
 H         0.262312         4.093121         2.333950
 H        -1.476807         2.598266         3.752517
 H         0.100600         0.652262         2.576020
 H        -1.676564         0.418293         2.232219
 H        -2.407435         4.173971         2.276912
 H        -2.755254         1.162386         0.050435
 H        -1.885042         2.204010        -1.165449
