19
Iteration:  3980
 O        -0.134591         0.329703        -0.136430
 C        -0.659045         1.436569         0.570625
 C         0.194701         2.658093         0.474074
 C        -0.364875         3.633846         1.503889
 C        -0.855434         2.698196         2.640607
 C        -0.687558         1.245293         2.135803
 C        -1.854236         3.412684         1.826003
 O        -2.733814         2.797952         0.974333
 C        -2.121038         1.657457         0.251024
 H        -0.150425        -0.431251         0.459840
 H         1.260863         2.238125         0.585463
 H         0.336005         3.074109        -0.504933
 H         0.107468         4.606748         1.819471
 H        -0.779175         2.852221         3.703595
 H         0.119224         0.647176         2.454517
 H        -1.776023         0.891119         2.323254
 H        -2.353441         4.430993         2.126139
 H        -2.680299         0.802242         0.474448
 H        -2.253622         1.996808        -0.874947
