19
Iteration:  2593
 O        -0.127537         0.352113        -0.138916
 C        -0.661728         1.415970         0.664442
 C         0.357295         2.534833         0.632543
 C        -0.271847         3.516264         1.683191
 C        -0.936437         2.652322         2.732787
 C        -0.983673         1.230038         2.140178
 C        -1.836145         3.516855         1.764899
 O        -2.717307         2.755805         0.845754
 C        -2.001557         1.882998         0.002028
 H        -0.845396        -0.320993        -0.123579
 H         1.273161         2.035604         0.968218
 H         0.449206         3.051879        -0.315626
 H         0.256377         4.439522         1.893143
 H        -0.818387         2.736823         3.784212
 H        -0.340527         0.543464         2.761870
 H        -2.037456         0.963069         2.287604
 H        -2.312813         4.364285         2.078640
 H        -2.593843         1.033855        -0.383256
 H        -1.733340         2.488989        -0.902168
