19
Iteration:  2049charge 0 multiplicity 1
 O        -0.125723         0.365209        -0.053313
 C        -0.725437         1.442339         0.671633
 C         0.284699         2.532520         0.727784
 C        -0.220566         3.387470         1.885546
 C        -1.257566         2.476091         2.770303
 C        -1.149005         1.104252         2.047192
 C        -1.702151         3.515031         1.732925
 O        -2.357397         3.105889         0.538760
 C        -2.084004         1.816185        -0.007547
 H         0.816674         0.612226        -0.149489
 H         1.203132         2.050679         1.022858
 H         0.266934         3.254685        -0.077704
 H         0.155229         4.308390         2.396505
 H        -1.407891         2.610106         3.875054
 H        -0.424683         0.457187         2.561893
 H        -2.035503         0.385364         2.047549
 H        -2.055353         4.442816         2.326979
 H        -2.909972         1.134711         0.216771
 H        -1.857715         1.980236        -1.132930
