19
Iteration:  4478
 O        -0.264595         0.188490         0.079925
 C        -0.700024         1.488064         0.588642
 C         0.265802         2.645898         0.558616
 C        -0.353207         3.584107         1.687752
 C        -0.851819         2.543457         2.658601
 C        -0.630412         1.216196         2.014732
 C        -1.904111         3.382388         1.779083
 O        -2.654271         3.003232         0.719776
 C        -2.151370         1.817762         0.163852
 H         0.586610         0.262118        -0.375118
 H         1.297255         2.275139         0.944000
 H         0.413767         3.100610        -0.398124
 H        -0.049778         4.518413         1.962822
 H        -1.159516         2.599204         3.740110
 H         0.289177         0.692605         2.379904
 H        -1.491202         0.560604         2.334190
 H        -2.448207         4.133382         2.291127
 H        -2.751078         0.891723         0.558362
 H        -2.321713         1.823335        -0.850948
