19
Iteration:  2257
 O        -0.206726         0.350408        -0.145132
 C        -0.744245         1.390617         0.647505
 C         0.240225         2.542397         0.761913
 C        -0.301216         3.431313         1.802515
 C        -1.168810         2.509602         2.714752
 C        -0.926055         1.104179         2.210960
 C        -1.783772         3.508733         1.760070
 O        -2.438331         3.120577         0.541913
 C        -2.019356         1.835475         0.026524
 H         0.747909         0.476914        -0.168931
 H         1.123028         2.008665         1.057744
 H         0.425905         3.052869        -0.231563
 H         0.381832         4.108448         2.244287
 H        -1.287045         2.636269         3.795911
 H        -0.142222         0.534100         2.707811
 H        -1.749625         0.434192         2.481215
 H        -2.205058         4.406522         2.180560
 H        -2.852065         1.147196         0.299855
 H        -1.918301         1.855924        -1.020687
