19
Iteration:  1282charge 0 multiplicity 1
 O        -0.184663         0.336438        -0.147314
 C        -0.692265         1.442659         0.617098
 C         0.371880         2.496995         0.860247
 C        -0.308490         3.412465         1.864118
 C        -1.140575         2.577080         2.756050
 C        -1.036577         1.082881         2.065451
 C        -1.826424         3.522359         1.746469
 O        -2.601174         3.038257         0.636550
 C        -1.944760         1.900002        -0.099351
 H         0.662234         0.033150         0.284068
 H         1.297111         2.081064         1.288284
 H         0.632777         3.090718        -0.048136
 H         0.299598         4.407590         2.110376
 H        -1.132750         2.605669         3.911905
 H        -0.128816         0.645854         2.548118
 H        -1.795583         0.271891         2.412613
 H        -2.325616         4.420245         2.164427
 H        -2.561070         0.958659        -0.323187
 H        -1.690517         2.338637        -1.109557
