19
Iteration:  3781
 O        -0.216593         0.411146        -0.213591
 C        -0.726688         1.429516         0.646643
 C         0.130559         2.588502         0.456629
 C        -0.396351         3.535441         1.505057
 C        -0.945427         2.658110         2.676205
 C        -0.519888         1.255985         2.355760
 C        -1.799632         3.453496         1.799397
 O        -2.738789         2.827095         0.899536
 C        -2.139725         1.657753         0.158831
 H         0.586710        -0.013276         0.121399
 H         1.214391         2.461109         0.817500
 H        -0.170558         2.833495        -0.555928
 H         0.191814         4.422317         1.666820
 H        -0.763775         3.137115         3.682377
 H         0.526833         1.220299         2.490313
 H        -0.885714         0.291982         2.830330
 H        -2.186745         4.307528         2.200927
 H        -2.741584         0.756018         0.353460
 H        -1.968345         1.882651        -0.969752
