19
Iteration:   310
 O        -0.154138         0.282966        -0.006103
 C        -0.703451         1.454343         0.547333
 C         0.368778         2.512314         0.784895
 C        -0.307827         3.373471         1.733346
 C        -1.128725         2.486481         2.708475
 C        -1.148006         1.135214         2.052823
 C        -1.862918         3.470870         1.864758
 O        -2.549405         3.024304         0.729874
 C        -1.880218         2.062383        -0.158218
 H         0.557786         0.044071         0.591702
 H         1.310160         2.020848         1.091591
 H         0.791993         2.953577        -0.150080
 H         0.139188         4.292377         2.323668
 H        -0.892154         2.843403         3.649876
 H        -0.431719         0.371444         2.492374
 H        -2.134294         0.576463         1.834330
 H        -2.260932         4.266545         2.406413
 H        -2.585970         1.233965        -0.309108
 H        -1.528233         2.598518        -1.117894
