19
Iteration:  3417charge 0 multiplicity 1
 O        -0.297109         0.223776        -0.081244
 C        -0.620006         1.468771         0.618560
 C         0.302371         2.701719         0.541474
 C        -0.354390         3.556035         1.664976
 C        -1.005928         2.583914         2.733637
 C        -0.651049         1.263089         2.122447
 C        -1.881461         3.428601         1.768741
 O        -2.709193         2.921248         0.805194
 C        -2.004216         1.648227         0.156828
 H        -0.063881         0.559215        -0.967926
 H         1.250992         2.254342         0.792617
 H         0.375044         3.218721        -0.423423
 H         0.040434         4.591066         1.912582
 H        -0.920367         2.746543         3.900185
 H         0.455270         0.901538         2.441861
 H        -1.455549         0.452284         2.391852
 H        -2.330539         4.353156         2.253971
 H        -2.738802         0.863510         0.506833
 H        -2.175676         1.985887        -0.871361
