19
Iteration:  4138
 O        -0.201459         0.188449         0.071536
 C        -0.703089         1.448320         0.546084
 C         0.315021         2.722219         0.439254
 C        -0.338212         3.567753         1.531309
 C        -0.923201         2.637037         2.571792
 C        -0.575081         1.292577         2.103163
 C        -1.878250         3.402675         1.827178
 O        -2.759352         2.874211         0.927518
 C        -2.230009         1.687587         0.234178
 H         0.427605         0.371531        -0.652996
 H         1.404170         2.568154         0.719416
 H         0.308454         3.200109        -0.582874
 H         0.227294         4.434763         2.031431
 H        -0.944380         2.955865         3.616358
 H         0.444539         1.075696         2.181874
 H        -1.180509         0.486007         2.398709
 H        -2.394309         4.115633         2.417724
 H        -2.810659         0.866246         0.559200
 H        -2.359565         1.874962        -0.903715
