19
Iteration:  1595charge 0 multiplicity 1
 O        -0.002901         0.243053        -0.042393
 C        -0.630760         1.369279         0.561053
 C         0.233026         2.645121         0.683339
 C        -0.288580         3.409876         1.901386
 C        -1.261348         2.414495         2.619539
 C        -1.084210         0.983299         2.101754
 C        -1.775918         3.558380         1.823068
 O        -2.432917         3.275233         0.554679
 C        -2.081127         1.882069         0.047561
 H         0.755467         0.047385         0.502992
 H         1.187604         2.342765         1.078114
 H         0.134162         3.155353        -0.287871
 H         0.354795         4.203924         2.412387
 H        -1.511485         2.412941         3.707026
 H        -0.208140         0.391285         2.724334
 H        -1.964742         0.419084         2.037371
 H        -2.140162         4.380429         2.244216
 H        -2.946012         1.249710         0.399442
 H        -2.245762         2.019953        -1.082461
