19
Iteration:   638charge 0 multiplicity 1
 O        -0.204317         0.283543        -0.136017
 C        -0.648278         1.427938         0.639708
 C         0.308701         2.557499         0.751014
 C        -0.283166         3.476957         1.924544
 C        -1.229434         2.481330         2.665570
 C        -1.037292         1.070152         2.071528
 C        -1.785341         3.511625         1.772449
 O        -2.516466         3.143979         0.580676
 C        -1.914492         1.879551        -0.003708
 H         0.554418        -0.092907         0.389395
 H         1.309211         2.159168         1.096557
 H         0.523736         3.173574        -0.107624
 H         0.200399         4.282453         2.498314
 H        -1.479080         2.469142         3.708230
 H        -0.176761         0.508548         2.599140
 H        -1.870430         0.435093         2.181578
 H        -2.222031         4.232976         2.384276
 H        -2.756477         1.176903         0.073543
 H        -1.714147         2.020186        -1.008242
