19
Iteration:  3718
 O        -0.025198         0.243137         0.080477
 C        -0.682803         1.426858         0.565711
 C         0.079948         2.710797         0.386448
 C        -0.320297         3.526840         1.549455
 C        -0.818409         2.640759         2.694607
 C        -0.728560         1.268277         2.129677
 C        -1.830595         3.444584         1.840985
 O        -2.756142         2.760443         0.989157
 C        -2.115542         1.814294         0.060856
 H        -0.421797         0.096221        -0.789973
 H         1.177439         2.538709         0.376351
 H        -0.225605         3.077738        -0.598924
 H         0.121272         4.439513         1.902249
 H        -0.875153         2.896244         3.789127
 H         0.345779         0.869995         2.354846
 H        -1.608789         0.664781         2.461709
 H        -2.335584         4.212438         2.284895
 H        -2.764483         0.833212         0.033445
 H        -2.145006         2.373257        -0.848421
