19
Iteration:  4353
 O        -0.316827         0.306926        -0.155848
 C        -0.701733         1.437008         0.668130
 C         0.095945         2.656494         0.472392
 C        -0.343888         3.663681         1.566092
 C        -0.886803         2.634668         2.764617
 C        -0.642470         1.203932         2.346717
 C        -1.784249         3.415947         1.795099
 O        -2.663485         2.787539         0.808183
 C        -2.015522         1.775975         0.026134
 H         0.028086        -0.428631         0.366531
 H         1.230312         2.493808         0.594166
 H         0.042902         3.044808        -0.607232
 H         0.234331         4.675538         1.724982
 H        -0.789804         2.846013         3.854933
 H         0.374313         0.898013         2.585316
 H        -1.433012         0.457780         2.665758
 H        -2.389084         4.149875         2.420586
 H        -2.751991         0.920306         0.073430
 H        -1.758561         2.034629        -0.992015
