19
Iteration:  2404charge 0 multiplicity 1
 O        -0.158569         0.341928        -0.065641
 C        -0.730244         1.405441         0.662393
 C         0.269019         2.587597         0.556798
 C        -0.308685         3.360728         1.734428
 C        -1.045157         2.588169         2.801390
 C        -1.054267         1.206149         2.203433
 C        -1.807098         3.515391         1.864272
 O        -2.586967         2.898119         0.738288
 C        -1.859855         1.957486        -0.178648
 H        -0.300580        -0.548337         0.362952
 H         1.252011         2.103953         0.787658
 H         0.167278         3.161341        -0.292163
 H         0.275102         4.129752         2.064234
 H        -0.740101         2.715060         3.780019
 H        -0.147272         0.661220         2.580855
 H        -2.024320         0.612571         2.410184
 H        -2.400581         4.304559         2.277285
 H        -2.482879         1.150180        -0.583263
 H        -1.468653         2.477889        -1.081941
