19
Iteration:  3323
 O        -0.310607         0.284268        -0.117444
 C        -0.611221         1.469757         0.592020
 C         0.245060         2.686264         0.601593
 C        -0.391947         3.548399         1.657238
 C        -0.990579         2.584975         2.719648
 C        -0.737718         1.159807         2.123708
 C        -1.875847         3.417039         1.791290
 O        -2.579288         2.955455         0.760473
 C        -2.044200         1.734735         0.185589
 H         0.603109         0.154835        -0.486559
 H         1.352750         2.462735         0.893769
 H         0.126016         3.222099        -0.420510
 H         0.095017         4.531527         1.978178
 H        -0.825268         2.700360         3.814073
 H         0.099243         0.653760         2.534469
 H        -1.486215         0.385902         2.305118
 H        -2.319652         4.357565         2.142663
 H        -2.643573         0.869351         0.619910
 H        -2.127072         1.673345        -0.927130
