19
Iteration:  4119charge 0 multiplicity 1
 O        -0.183387         0.253575        -0.056046
 C        -0.639483         1.404054         0.636004
 C         0.166423         2.621991         0.499925
 C        -0.422787         3.616493         1.501238
 C        -0.819679         2.664898         2.706684
 C        -0.565833         1.211486         2.195043
 C        -1.857399         3.455393         1.803396
 O        -2.782582         2.862354         0.858203
 C        -2.195408         1.723445         0.205952
 H         0.297816         0.585064        -0.853782
 H         1.180386         2.296609         0.817719
 H         0.395969         2.962387        -0.596337
 H        -0.043950         4.684586         1.515920
 H        -0.506215         2.752657         3.745155
 H         0.522374         0.955171         2.506992
 H        -1.259732         0.465909         2.487681
 H        -2.313919         4.468623         2.087123
 H        -2.773348         0.790887         0.539518
 H        -2.278866         1.861325        -0.858054
