19
Iteration:  1788charge 0 multiplicity 1
 O        -0.300970         0.284792        -0.075197
 C        -0.697622         1.407775         0.686932
 C         0.320925         2.586178         0.772899
 C        -0.368493         3.431459         1.856212
 C        -1.217908         2.401789         2.711165
 C        -0.924102         1.020920         2.143607
 C        -1.856345         3.455738         1.807473
 O        -2.401528         3.212497         0.490073
 C        -1.901654         1.984002        -0.087686
 H         0.534976        -0.012670         0.323404
 H         1.204015         2.237558         1.197341
 H         0.485604         3.131154        -0.140208
 H         0.319660         4.120537         2.433552
 H        -1.351736         2.577579         3.779062
 H         0.018959         0.628837         2.551171
 H        -1.719277         0.206328         2.370553
 H        -2.320766         4.282063         2.210079
 H        -2.808218         1.328458        -0.123263
 H        -1.618572         2.154326        -1.141924
