19
Iteration:   641
 O        -0.186678         0.271484        -0.120526
 C        -0.649087         1.415496         0.636995
 C         0.305912         2.568990         0.759398
 C        -0.262787         3.462236         1.935119
 C        -1.219956         2.483564         2.653835
 C        -1.010245         1.055659         2.051383
 C        -1.809282         3.525072         1.783127
 O        -2.515301         3.153827         0.580909
 C        -1.957780         1.879690        -0.011449
 H         0.567674        -0.102595         0.390454
 H         1.303707         2.194892         1.171400
 H         0.621417         3.229342        -0.039131
 H         0.204461         4.201247         2.422182
 H        -1.478067         2.483145         3.709326
 H        -0.177871         0.579485         2.580039
 H        -1.965499         0.487564         2.132305
 H        -2.240495         4.338394         2.372326
 H        -2.779853         1.132122         0.067126
 H        -1.819214         2.027557        -1.089155
