19
Iteration:  4378charge 0 multiplicity 1
 O        -0.281405         0.169350         0.007125
 C        -0.611864         1.430339         0.607021
 C         0.230411         2.705935         0.451099
 C        -0.355941         3.581345         1.616699
 C        -0.944289         2.606593         2.677854
 C        -0.681421         1.236885         2.111220
 C        -1.855931         3.494045         1.813977
 O        -2.724883         2.866343         0.868061
 C        -2.070542         1.771206         0.122975
 H         0.634700         0.088138        -0.322450
 H         1.330491         2.520772         0.542165
 H         0.135136         3.172418        -0.497843
 H         0.102358         4.435270         2.168170
 H        -0.686216         2.643386         3.715812
 H         0.319035         0.979235         2.450506
 H        -1.458841         0.416758         2.367417
 H        -2.271507         4.436817         2.216194
 H        -2.767643         0.850299         0.255464
 H        -2.008293         2.021496        -0.906342
