19
Iteration:  4467
 O        -0.318739         0.188691        -0.015877
 C        -0.637004         1.421812         0.544945
 C         0.276870         2.732565         0.547455
 C        -0.358561         3.580837         1.684897
 C        -0.904933         2.564246         2.669276
 C        -0.701945         1.158933         2.091672
 C        -1.877517         3.495704         1.830077
 O        -2.689081         2.986792         0.743718
 C        -2.072598         1.704637         0.155240
 H         0.647853         0.221922         0.149322
 H         1.326318         2.465458         0.820879
 H         0.372845         3.280954        -0.372026
 H         0.285400         4.345560         1.926400
 H        -1.014485         2.920494         3.724110
 H         0.323299         0.826967         2.413201
 H        -1.459788         0.359370         2.290164
 H        -2.392450         4.311679         2.270295
 H        -2.741420         0.836468         0.524709
 H        -2.159537         1.774072        -0.881416
