19
Iteration:  3653
 O        -0.336131         0.288696        -0.175333
 C        -0.615019         1.414666         0.602816
 C         0.359557         2.806233         0.477002
 C        -0.307871         3.660365         1.722960
 C        -0.943278         2.667709         2.644196
 C        -0.694103         1.209932         2.162618
 C        -1.851823         3.460667         1.720751
 O        -2.728635         2.772574         0.877329
 C        -2.170241         1.610038         0.230277
 H         0.512660        -0.144103         0.062574
 H         1.396754         2.570356         0.602541
 H         0.402500         3.310894        -0.483378
 H         0.321721         4.464286         2.155974
 H        -0.888858         2.803460         3.783973
 H         0.420752         0.940539         2.443383
 H        -1.513027         0.502236         2.378089
 H        -2.317259         4.291449         2.110211
 H        -2.578906         0.628784         0.604005
 H        -2.294863         1.751820        -0.823049
