19
Iteration:  1502charge 0 multiplicity 1
 O        -0.111685         0.327393        -0.098760
 C        -0.707505         1.416770         0.626243
 C         0.405614         2.540708         0.773677
 C        -0.295042         3.418643         1.835368
 C        -1.143084         2.489988         2.774627
 C        -1.154386         1.141116         2.109820
 C        -1.813320         3.448185         1.747488
 O        -2.558523         2.995551         0.662421
 C        -1.956938         2.027535        -0.128435
 H         0.661788         0.027869         0.448988
 H         1.318291         1.985159         1.123359
 H         0.496923         3.004973        -0.215408
 H         0.146022         4.334407         2.209681
 H        -1.100587         2.644273         3.799919
 H        -0.414364         0.516861         2.659603
 H        -2.173815         0.582891         2.138434
 H        -2.212170         4.460025         2.098052
 H        -2.514941         1.113047        -0.274966
 H        -1.743135         2.427450        -1.080571
