19
Iteration:  2364charge 0 multiplicity 1
 O        -0.259984         0.271787        -0.054017
 C        -0.618550         1.456330         0.631856
 C         0.442508         2.575645         0.743764
 C        -0.274513         3.459524         1.737130
 C        -1.122307         2.513819         2.598850
 C        -1.044988         1.114015         2.062205
 C        -1.804664         3.565460         1.758278
 O        -2.671210         2.966546         0.757418
 C        -1.946401         1.886002         0.050012
 H         0.666916         0.366038        -0.297912
 H         1.310659         2.325379         1.359798
 H         0.869835         2.958257        -0.245414
 H         0.336467         4.250680         2.172637
 H        -1.034308         2.618123         3.720961
 H        -0.182845         0.597175         2.518901
 H        -1.951877         0.582826         1.996552
 H        -2.272579         4.488823         2.243982
 H        -2.731873         1.145467         0.156623
 H        -1.927790         2.060428        -1.070015
