19
Iteration:   691charge 0 multiplicity 1
 O        -0.223796         0.370954        -0.161599
 C        -0.648531         1.375442         0.730415
 C         0.211809         2.612722         0.772751
 C        -0.316442         3.419396         1.903230
 C        -1.204573         2.457048         2.666509
 C        -1.010777         0.997706         2.141131
 C        -1.815666         3.561806         1.726466
 O        -2.366573         3.111091         0.525714
 C        -1.940029         1.888878         0.021692
 H         0.463409        -0.148655         0.339111
 H         1.248508         2.530895         0.800262
 H        -0.023164         3.145641        -0.139951
 H         0.435725         4.004991         2.571438
 H        -1.304027         2.557995         3.728439
 H        -0.190687         0.495173         2.662400
 H        -1.925649         0.460169         2.184668
 H        -2.345985         4.241111         2.298693
 H        -2.847844         1.280744        -0.011114
 H        -1.603995         2.028520        -1.021522
