19
Iteration:  4118charge 0 multiplicity 1
 O        -0.182023         0.254341        -0.063932
 C        -0.649952         1.399172         0.639582
 C         0.159710         2.622102         0.503197
 C        -0.420276         3.617634         1.500344
 C        -0.813850         2.667485         2.703848
 C        -0.573471         1.209292         2.204513
 C        -1.858036         3.452946         1.800385
 O        -2.781997         2.863497         0.859572
 C        -2.180382         1.720610         0.212484
 H         0.280299         0.601002        -0.865850
 H         1.197616         2.322986         0.818125
 H         0.360219         2.949637        -0.607133
 H        -0.050320         4.705803         1.528037
 H        -0.518451         2.761443         3.747402
 H         0.487255         0.956473         2.489219
 H        -1.240889         0.483103         2.479674
 H        -2.293005         4.440433         2.060163
 H        -2.757675         0.814222         0.535217
 H        -2.250533         1.859358        -0.881490
