19
Iteration:  4296charge 0 multiplicity 1
 O        -0.118716         0.247324         0.007926
 C        -0.656357         1.397627         0.605145
 C         0.211451         2.728177         0.424939
 C        -0.285423         3.524899         1.581648
 C        -0.959832         2.647309         2.651994
 C        -0.763798         1.194076         2.120229
 C        -1.816835         3.532336         1.781485
 O        -2.692375         2.876043         0.918896
 C        -2.201678         1.658864         0.226594
 H         0.311743         0.456029        -0.863686
 H         1.306934         2.537022         0.548072
 H        -0.056312         3.345132        -0.552447
 H         0.174745         4.399900         1.823909
 H        -0.691827         2.778637         3.707866
 H         0.248144         0.812514         2.448691
 H        -1.449013         0.450170         2.419428
 H        -2.327552         4.360844         2.139084
 H        -2.930646         0.889481         0.486104
 H        -2.176060         1.847880        -0.882572
