19
Iteration:  2117charge 0 multiplicity 1
 O        -0.315273         0.278996        -0.072661
 C        -0.701243         1.436792         0.652255
 C         0.483115         2.555167         0.883416
 C        -0.253317         3.431808         1.885326
 C        -1.213923         2.453725         2.669722
 C        -0.879453         1.116936         2.078973
 C        -1.826047         3.464165         1.686334
 O        -2.600463         3.121825         0.570263
 C        -1.972801         1.970799        -0.090015
 H         0.150792        -0.267408         0.568768
 H         1.253911         1.960811         1.415377
 H         0.860489         2.916030        -0.049760
 H         0.160002         4.221356         2.379811
 H        -1.282290         2.765689         3.661074
 H         0.001906         0.767097         2.605479
 H        -1.577568         0.224298         2.217804
 H        -2.416526         4.198166         2.146406
 H        -2.793675         1.286281        -0.231416
 H        -1.582309         2.426604        -1.082250
