19
Iteration:   574charge 0 multiplicity 1
 O        -0.196142         0.293740        -0.024293
 C        -0.632681         1.420168         0.558674
 C         0.418712         2.559076         0.806498
 C        -0.302889         3.410867         1.797258
 C        -1.215600         2.433192         2.658419
 C        -1.080578         1.086443         2.057338
 C        -1.806990         3.533296         1.770012
 O        -2.602586         3.054766         0.745100
 C        -1.908003         1.999476        -0.098209
 H         0.671249         0.125840         0.321005
 H         1.305079         1.944787         1.188906
 H         0.823071         3.039209        -0.078517
 H         0.149826         4.205529         2.179639
 H        -1.355428         2.680523         3.702326
 H        -0.318901         0.591613         2.657194
 H        -1.971000         0.521205         1.930922
 H        -2.169546         4.439622         2.194897
 H        -2.685402         1.216264        -0.338895
 H        -1.573014         2.408351        -1.095095
