19
Iteration:  1016charge 0 multiplicity 1
 O        -0.110750         0.328277        -0.086965
 C        -0.675023         1.357964         0.703674
 C         0.247385         2.576662         0.765381
 C        -0.339953         3.465266         1.832339
 C        -1.107444         2.491756         2.787355
 C        -1.064739         0.960861         2.117128
 C        -1.783732         3.517114         1.831659
 O        -2.538457         3.145561         0.596788
 C        -1.975589         1.891721        -0.195300
 H         0.719883         0.046446         0.304331
 H         1.274586         2.368584         1.100613
 H         0.183025         3.242466        -0.140800
 H         0.153619         4.470705         1.934718
 H        -1.059712         2.514534         3.957108
 H        -0.186988         0.549304         2.575631
 H        -2.027252         0.310970         2.304167
 H        -2.358071         4.360078         2.270789
 H        -2.763495         1.154678        -0.645482
 H        -1.394626         2.324620        -1.132101
