19
Iteration:  1685charge 0 multiplicity 1
 O        -0.191903         0.253955        -0.012436
 C        -0.693155         1.433038         0.620408
 C         0.406960         2.537665         0.797771
 C        -0.287917         3.434025         1.835567
 C        -1.206638         2.461394         2.678889
 C        -1.058067         1.065960         2.003188
 C        -1.762807         3.485187         1.756035
 O        -2.609803         3.036306         0.692789
 C        -1.907021         2.053509        -0.118472
 H         0.506542         0.050951         0.604649
 H         1.367710         2.148264         1.212003
 H         0.714390         3.008568        -0.137880
 H         0.264383         4.231326         2.281680
 H        -1.493578         2.653072         3.697522
 H        -0.127532         0.555307         2.485334
 H        -1.997862         0.496778         2.154899
 H        -2.237597         4.449927         2.142623
 H        -2.670305         1.365304        -0.480522
 H        -1.633917         2.801221        -0.934559
