19
Iteration:  1270charge 0 multiplicity 1
 O        -0.128559         0.329203        -0.106740
 C        -0.736676         1.355971         0.674706
 C         0.271850         2.527369         0.821039
 C        -0.302027         3.487310         1.793891
 C        -1.168917         2.463510         2.645690
 C        -1.007311         1.113008         2.134658
 C        -1.786623         3.496116         1.753232
 O        -2.554936         2.985017         0.678393
 C        -1.925380         2.049354        -0.106404
 H         0.638494         0.056385         0.376855
 H         1.207010         2.123025         1.221922
 H         0.461203         2.818270        -0.227795
 H         0.265087         4.285035         2.345960
 H        -1.222147         2.622740         3.768249
 H        -0.103776         0.596430         2.492112
 H        -2.020627         0.518920         2.182140
 H        -2.334233         4.307563         2.220481
 H        -2.802468         1.355040        -0.275979
 H        -1.527728         2.436531        -1.061843
