19
Iteration:  3565charge 0 multiplicity 1
 O        -0.191504         0.327333        -0.046807
 C        -0.633634         1.507865         0.529898
 C         0.211464         2.753013         0.468204
 C        -0.285750         3.536135         1.638191
 C        -0.949460         2.593009         2.654659
 C        -0.719363         1.231413         2.172096
 C        -1.860841         3.405931         1.804940
 O        -2.632554         2.831381         0.802156
 C        -2.138857         1.622842         0.276030
 H        -0.737086         0.092452        -0.824172
 H         1.276435         2.644065         0.704413
 H         0.306224         3.361582        -0.465103
 H         0.361874         4.324860         2.037576
 H        -0.894950         2.837489         3.762979
 H         0.334913         1.122428         2.698631
 H        -1.533010         0.498049         2.515386
 H        -2.472894         4.355015         1.998084
 H        -2.790685         0.755240         0.621502
 H        -2.379128         1.719542        -0.864050
