19
Iteration:  2811
 O        -0.177295         0.294480        -0.147887
 C        -0.723448         1.399812         0.654264
 C         0.312307         2.463793         0.671749
 C        -0.312905         3.528044         1.512003
 C        -0.974866         2.739572         2.739337
 C        -0.905755         1.186279         2.188064
 C        -1.831209         3.464247         1.789883
 O        -2.704478         2.757406         0.944066
 C        -1.985916         1.945232         0.008700
 H         0.086191         0.856443        -0.921347
 H         1.322206         2.047210         1.141388
 H         0.735579         2.736484        -0.249646
 H         0.197875         4.526717         1.603511
 H        -1.027078         2.746586         3.837993
 H        -0.043990         0.635879         2.633880
 H        -1.795999         0.658367         2.521594
 H        -2.370954         4.511750         1.974465
 H        -2.519017         1.084708        -0.489203
 H        -1.656593         2.687478        -0.753587
