19
Iteration:  1660charge 0 multiplicity 1
 O        -0.386749         0.272622        -0.196593
 C        -0.582046         1.362973         0.702647
 C         0.402318         2.599491         0.833413
 C        -0.377240         3.420758         1.858423
 C        -1.191362         2.504910         2.717183
 C        -0.980523         1.110334         2.135360
 C        -1.921205         3.463870         1.833170
 O        -2.492031         3.061411         0.558025
 C        -1.780479         1.980473        -0.085639
 H         0.380253        -0.255842         0.089242
 H         1.507101         2.330107         1.178415
 H         0.626834         3.097452        -0.150942
 H         0.085347         4.362298         2.244503
 H        -1.218907         2.585118         3.795336
 H        -0.165571         0.690450         2.810407
 H        -1.852120         0.575826         2.344039
 H        -2.277875         4.369526         2.051781
 H        -2.538853         1.192437        -0.232463
 H        -1.561297         2.451804        -1.060943
