19
Iteration:   211charge 0 multiplicity 1
 O        -0.089199         0.304521        -0.065220
 C        -0.698198         1.431479         0.613124
 C         0.229201         2.612200         0.704527
 C        -0.247435         3.354185         1.902855
 C        -1.270000         2.453128         2.749002
 C        -1.092745         1.098680         2.044142
 C        -1.768456         3.484515         1.794273
 O        -2.396663         3.193556         0.582702
 C        -2.033242         1.835294        -0.014990
 H         0.630863        -0.047235         0.438802
 H         1.327101         2.277711         0.773389
 H         0.212052         3.332538        -0.215947
 H         0.222633         4.321977         2.344751
 H        -1.244767         2.530125         3.824004
 H        -0.235295         0.547878         2.539802
 H        -1.959782         0.360787         2.079897
 H        -2.224267         4.405044         2.151449
 H        -2.788598         1.084454         0.122121
 H        -1.825694         2.047383        -1.063367
