19
Iteration:  4932
 O        -0.197692         0.242317        -0.145830
 C        -0.679645         1.393602         0.647722
 C         0.246284         2.630588         0.560348
 C        -0.393935         3.604791         1.502071
 C        -0.961885         2.602051         2.691155
 C        -0.661750         1.157517         2.203034
 C        -1.882237         3.422226         1.840846
 O        -2.684357         2.989288         0.818248
 C        -2.114119         1.806881         0.112619
 H         0.379387        -0.307276         0.432643
 H         1.270589         2.598581         0.987690
 H         0.323631         2.922845        -0.516664
 H         0.187772         4.420561         1.947831
 H        -0.887419         3.036906         3.651225
 H         0.401261         0.766394         2.601485
 H        -1.312849         0.356395         2.559828
 H        -2.229466         4.272887         2.337034
 H        -2.794509         0.854666         0.296554
 H        -2.102002         2.019627        -0.960165
