19
Iteration:   551
 O        -0.146843         0.283023        -0.106875
 C        -0.671910         1.381647         0.620243
 C         0.348474         2.562158         0.802022
 C        -0.254342         3.398894         1.874338
 C        -1.097165         2.515710         2.744556
 C        -1.214874         1.132550         2.102466
 C        -1.821500         3.480315         1.797337
 O        -2.569304         2.981453         0.661678
 C        -1.899084         2.059500        -0.133041
 H         0.764535         0.107368         0.280244
 H         1.459314         2.268423         0.898322
 H         0.273507         2.952639        -0.194509
 H         0.285197         4.224672         2.175065
 H        -1.205311         2.659540         3.852632
 H        -0.464844         0.466024         2.564802
 H        -2.182750         0.744794         2.048251
 H        -2.272311         4.455116         2.096227
 H        -2.647610         1.244883        -0.390554
 H        -1.463049         2.331640        -1.106571
