19
Iteration:  4694
 O        -0.404695         0.210050        -0.066911
 C        -0.680944         1.469410         0.650400
 C         0.181128         2.744351         0.544858
 C        -0.300081         3.620653         1.675624
 C        -0.874399         2.693164         2.821387
 C        -0.759859         1.200990         2.098457
 C        -1.871674         3.359236         1.889496
 O        -2.542735         2.852433         0.672818
 C        -2.017621         1.724467         0.049806
 H         0.581049         0.130469        -0.118731
 H         1.168457         2.462201         0.684306
 H         0.052886         3.219884        -0.414170
 H         0.266406         4.486000         2.056325
 H        -0.789490         2.947460         3.958666
 H         0.054480         0.515453         2.341796
 H        -1.720210         0.550002         2.378878
 H        -2.547778         4.159719         2.373140
 H        -2.599811         0.844336         0.100615
 H        -1.667435         1.991554        -1.019946
