19
Iteration:  4405
 O        -0.067556         0.306329         0.012194
 C        -0.684172         1.417569         0.588797
 C         0.247879         2.640013         0.530780
 C        -0.342983         3.585708         1.560263
 C        -0.884554         2.644622         2.627691
 C        -0.822844         1.203339         2.128836
 C        -1.826394         3.410487         1.789378
 O        -2.647136         2.896853         0.858304
 C        -2.199080         1.725546         0.214370
 H        -0.378349         0.109313        -0.890275
 H         1.241381         2.288228         0.744718
 H         0.280927         3.151154        -0.487632
 H         0.073962         4.529491         1.937740
 H        -0.935257         2.698212         3.749564
 H         0.098670         0.664206         2.470594
 H        -1.673189         0.638842         2.398274
 H        -2.213516         4.333965         2.260807
 H        -2.886850         0.934368         0.359975
 H        -2.255031         1.930252        -0.948193
