19
Iteration:  1102charge 0 multiplicity 1
 O        -0.103040         0.347116        -0.152236
 C        -0.685275         1.443371         0.646297
 C         0.239445         2.502413         0.700398
 C        -0.407581         3.509423         1.797365
 C        -1.204551         2.414964         2.771285
 C        -1.029566         1.016285         2.153993
 C        -1.837864         3.553754         1.780004
 O        -2.457970         3.066800         0.613929
 C        -1.890715         1.957507        -0.017492
 H         0.455803        -0.144689         0.426775
 H         1.152248         2.210792         1.197944
 H         0.346568         2.947642        -0.315340
 H         0.394708         4.233641         2.266008
 H        -1.132950         2.737267         3.895635
 H        -0.110626         0.581550         2.606178
 H        -1.923078         0.327562         2.238862
 H        -2.375191         4.446579         2.233759
 H        -2.602357         1.099401        -0.055682
 H        -1.669811         2.228771        -1.077403
