19
Iteration:   437charge 0 multiplicity 1
 O        -0.193131         0.344580        -0.133144
 C        -0.664827         1.415500         0.636349
 C         0.307462         2.714602         0.714501
 C        -0.275098         3.412886         1.935274
 C        -1.256511         2.416709         2.737310
 C        -1.171368         1.000811         2.154664
 C        -1.739732         3.489828         1.779958
 O        -2.344929         3.142229         0.566843
 C        -1.944363         1.796295        -0.052324
 H         0.549274        -0.070924         0.416894
 H         1.431647         2.496508         0.724793
 H        -0.059172         3.311008        -0.185969
 H         0.234183         4.442197         2.277569
 H        -1.245027         2.655390         3.766568
 H        -0.380080         0.396141         2.668037
 H        -2.194103         0.628183         2.127463
 H        -2.215225         4.305550         2.177978
 H        -2.874517         1.176496         0.104360
 H        -1.929983         1.971242        -1.096985
