19
Iteration:  3068
 O        -0.387156         0.200733        -0.127164
 C        -0.657605         1.414841         0.655935
 C         0.378928         2.639749         0.594909
 C        -0.353777         3.495324         1.705910
 C        -1.015592         2.623869         2.716244
 C        -0.763213         1.246055         2.197561
 C        -1.888443         3.396368         1.865874
 O        -2.668864         2.836734         0.803523
 C        -1.882884         1.928508        -0.031551
 H         0.462445         0.341601        -0.601303
 H         1.437255         2.486231         0.748197
 H         0.308709         2.987976        -0.436478
 H         0.029556         4.479354         2.059034
 H        -1.153520         2.962694         3.724720
 H         0.147910         0.797911         2.585821
 H        -1.616048         0.521455         2.427701
 H        -2.468310         4.317301         2.200481
 H        -2.620531         1.124539        -0.236735
 H        -1.683760         2.490111        -0.949225
