19
Iteration:  1904charge 0 multiplicity 1
 O        -0.370193         0.277845        -0.098069
 C        -0.716488         1.402221         0.629904
 C         0.425975         2.666275         0.833247
 C        -0.258414         3.453853         1.938631
 C        -1.203603         2.504691         2.792938
 C        -1.044797         1.116538         2.132328
 C        -1.758742         3.487088         1.726409
 O        -2.527897         2.908744         0.593906
 C        -1.843964         2.018459        -0.204098
 H         0.521476        -0.034633        -0.061942
 H         1.438499         2.174778         1.201192
 H         0.560664         3.210304        -0.125081
 H         0.157368         4.291353         2.474830
 H        -1.403861         2.735861         3.818364
 H        -0.340417         0.434559         2.698077
 H        -1.956414         0.596175         2.150598
 H        -2.174922         4.384428         2.169495
 H        -2.502648         1.161600        -0.466598
 H        -1.371790         2.326719        -1.192827
