19
Iteration:  1297charge 0 multiplicity 1
 O        -0.277704         0.327525        -0.207121
 C        -0.607678         1.459457         0.589688
 C         0.487470         2.599920         0.822310
 C        -0.307081         3.396709         1.867472
 C        -1.221883         2.516469         2.776511
 C        -1.007266         1.185478         2.189154
 C        -1.847096         3.448351         1.762475
 O        -2.577042         3.011824         0.602790
 C        -1.939187         1.869157        -0.058607
 H         0.550657        -0.079945         0.004508
 H         1.369029         2.077994         1.288900
 H         0.923205         3.092290        -0.058480
 H         0.135006         4.270409         2.382029
 H        -1.404683         2.718698         3.796824
 H        -0.222277         0.540324         2.647000
 H        -1.897389         0.733104         2.007408
 H        -2.192535         4.444195         2.034570
 H        -2.686719         1.098894         0.174896
 H        -1.825666         2.028814        -1.208929
