19
Iteration:  3698
 O        -0.016037         0.342661        -0.077492
 C        -0.787966         1.375909         0.677909
 C         0.141395         2.661532         0.450960
 C        -0.359532         3.614247         1.514309
 C        -0.836736         2.641799         2.643088
 C        -0.658574         1.163420         2.241053
 C        -1.866898         3.467043         1.864354
 O        -2.745959         2.767683         0.952008
 C        -2.146313         1.813693         0.057725
 H        -0.629981        -0.400320        -0.219855
 H         1.180647         2.456942         0.579664
 H         0.098756         3.006457        -0.599888
 H         0.140608         4.586265         1.648332
 H        -0.619680         2.896954         3.701257
 H         0.431462         0.867066         2.474797
 H        -1.445496         0.539040         2.569988
 H        -2.384673         4.289249         2.264892
 H        -2.953410         1.098391        -0.144137
 H        -1.685096         2.096587        -0.853881
