19
Iteration:  4144charge 0 multiplicity 1
 O        -0.217478         0.156595         0.084790
 C        -0.697308         1.452478         0.560262
 C         0.253086         2.766194         0.423305
 C        -0.292680         3.628964         1.584118
 C        -0.911038         2.623473         2.558877
 C        -0.639725         1.286158         2.090023
 C        -1.865127         3.378072         1.798707
 O        -2.765468         2.857050         0.924971
 C        -2.141940         1.713023         0.241448
 H         0.371164         0.403885        -0.669088
 H         1.308153         2.508492         0.479814
 H         0.196704         3.181663        -0.583239
 H         0.155668         4.450073         2.022308
 H        -0.866172         2.701757         3.651021
 H         0.501368         1.160357         2.206721
 H        -1.260670         0.306802         2.371157
 H        -2.345298         4.292808         2.252514
 H        -2.720417         0.805326         0.635191
 H        -2.320378         1.841080        -0.796308
