19
Iteration:   371charge 0 multiplicity 1
 O        -0.361263         0.347842        -0.169107
 C        -0.621893         1.420100         0.702368
 C         0.386980         2.516595         0.820922
 C        -0.314197         3.442856         1.896545
 C        -1.187746         2.529730         2.671822
 C        -1.021383         1.088130         2.116208
 C        -1.830815         3.527111         1.804618
 O        -2.527608         3.040043         0.580438
 C        -1.788906         1.917898        -0.087733
 H         0.504034        -0.007108        -0.049443
 H         1.287919         2.044878         1.303902
 H         0.517831         3.050447        -0.156434
 H         0.152603         4.365830         2.361100
 H        -1.348105         2.680285         3.772131
 H        -0.197987         0.516012         2.607564
 H        -1.862764         0.393692         2.099425
 H        -2.540260         4.225559         2.250798
 H        -2.473931         1.016642        -0.017880
 H        -1.520755         2.262795        -1.062019
