19
Iteration:  3538
 O        -0.161265         0.297983        -0.184390
 C        -0.648337         1.397226         0.706628
 C         0.174392         2.577465         0.606605
 C        -0.433858         3.658681         1.509376
 C        -0.883976         2.618073         2.675946
 C        -0.611374         1.147394         2.244927
 C        -1.873112         3.476031         1.809591
 O        -2.734542         2.889320         0.845640
 C        -2.032033         1.726443         0.156324
 H        -0.903137         0.103796        -0.802057
 H         1.209873         2.696534         0.820458
 H         0.151366         2.828973        -0.439813
 H         0.092990         4.626185         1.582960
 H        -0.754445         2.904122         3.701208
 H         0.410952         1.015822         2.528651
 H        -1.350431         0.497288         2.727982
 H        -2.462186         4.188928         2.274518
 H        -2.707676         0.838343         0.099505
 H        -1.888728         2.139556        -0.785170
