19
Iteration:  3984
 O        -0.184556         0.360495        -0.146226
 C        -0.658582         1.409921         0.595694
 C         0.209491         2.686387         0.482676
 C        -0.356887         3.616901         1.521603
 C        -0.873885         2.695407         2.656818
 C        -0.697132         1.274998         2.102311
 C        -1.838634         3.439294         1.809324
 O        -2.688748         2.743586         0.961487
 C        -2.108173         1.655665         0.230929
 H        -0.321374        -0.397460         0.455155
 H         1.302424         2.355463         0.668622
 H         0.245998         3.148375        -0.550347
 H         0.007782         4.547239         1.830648
 H        -0.707976         2.919108         3.744271
 H         0.062816         0.587263         2.642057
 H        -1.658139         0.844872         2.322249
 H        -2.277301         4.457047         2.054044
 H        -2.651646         0.707634         0.587128
 H        -2.376450         1.878791        -0.795756
