19
Iteration:  4586charge 0 multiplicity 1
 O        -0.274227         0.147532        -0.047054
 C        -0.663591         1.402493         0.611748
 C         0.271552         2.691623         0.473166
 C        -0.355466         3.516297         1.638468
 C        -1.051305         2.589381         2.717366
 C        -0.663558         1.144762         2.191185
 C        -1.847061         3.505442         1.773509
 O        -2.683718         2.931338         0.808210
 C        -2.042268         1.915791         0.093674
 H         0.617629        -0.044097         0.260566
 H         1.408399         2.456461         0.652036
 H         0.241501         3.178519        -0.494067
 H         0.087685         4.380197         2.056055
 H        -0.742485         2.742194         3.798112
 H         0.245511         0.900192         2.638582
 H        -1.460381         0.339619         2.440496
 H        -2.561013         4.161930         2.291334
 H        -2.742118         1.081407        -0.113594
 H        -1.792659         2.404413        -0.901401
