19
Iteration:   104charge 0 multiplicity 1
 O        -0.211354         0.291204        -0.169473
 C        -0.674631         1.366930         0.660919
 C         0.302150         2.624085         0.713568
 C        -0.310320         3.469780         1.859689
 C        -1.142377         2.549693         2.740942
 C        -1.197223         1.147001         2.138000
 C        -1.773229         3.453199         1.895185
 O        -2.432794         3.002673         0.653706
 C        -1.864942         1.911285        -0.126761
 H         0.616714        -0.116067         0.109005
 H         1.226449         2.277598         1.075053
 H         0.526021         3.101133        -0.314901
 H         0.280893         4.415785         2.200268
 H        -1.213502         2.557711         3.834841
 H        -0.653334         0.430437         2.739646
 H        -2.309408         0.783607         2.033381
 H        -2.409272         4.265467         2.290513
 H        -2.708023         1.147480        -0.430318
 H        -1.354910         2.230145        -1.070679
