19
Iteration:  2760
 O        -0.267735         0.183978         0.027385
 C        -0.636936         1.415109         0.611299
 C         0.166750         2.744198         0.551258
 C        -0.316973         3.505772         1.741295
 C        -1.024845         2.571550         2.739539
 C        -0.871715         1.209691         2.107276
 C        -1.745845         3.405837         1.805437
 O        -2.502875         2.961623         0.729450
 C        -2.038948         1.813902         0.039420
 H         0.179433         0.454704        -0.807733
 H         1.229391         2.631834         0.576692
 H         0.000333         3.284346        -0.466231
 H        -0.029382         4.518498         2.032003
 H        -0.925831         2.608336         3.848156
 H         0.049118         0.699020         2.507599
 H        -1.691485         0.486234         2.301476
 H        -2.346997         4.205751         2.370902
 H        -2.633125         0.861794         0.242481
 H        -2.111051         1.979458        -1.057429
