19
Iteration:  1926
 O        -0.130990         0.295374        -0.083943
 C        -0.667050         1.418339         0.629459
 C         0.382342         2.468783         0.791221
 C        -0.291991         3.424159         1.816635
 C        -1.141417         2.521169         2.693273
 C        -1.236969         1.124006         2.065102
 C        -1.835038         3.524215         1.785052
 O        -2.578708         3.001753         0.702278
 C        -1.860679         2.033750        -0.104404
 H         0.750136         0.002778         0.281421
 H         1.317344         1.939749         1.210257
 H         0.640778         2.978390        -0.145305
 H         0.209528         4.351735         2.072085
 H        -1.116089         2.660634         3.754942
 H        -0.530708         0.445398         2.610718
 H        -2.192576         0.691670         2.120840
 H        -2.172094         4.324787         2.335886
 H        -2.555941         1.239992        -0.425919
 H        -1.424666         2.496580        -1.031569
