19
Iteration:   713
 O        -0.293336         0.275669        -0.277788
 C        -0.604579         1.394835         0.640811
 C         0.332785         2.704898         0.742908
 C        -0.290990         3.404858         1.926755
 C        -1.289005         2.503228         2.819024
 C        -1.025356         1.096249         2.244162
 C        -1.855368         3.451933         1.800192
 O        -2.394493         3.103497         0.525597
 C        -1.879619         1.861407        -0.044697
 H         0.410070        -0.201867         0.159950
 H         1.293776         2.348928         0.942588
 H         0.333028         3.200738        -0.205510
 H         0.190263         4.415006         2.212550
 H        -1.507883         2.529681         3.866509
 H        -0.163988         0.684783         2.761242
 H        -1.867759         0.455541         2.370150
 H        -2.131844         4.307951         2.266788
 H        -2.749009         1.225669         0.011069
 H        -1.688850         2.019059        -1.116243
