19
Iteration:  3327
 O        -0.280291         0.281235        -0.131553
 C        -0.633883         1.466417         0.654872
 C         0.245012         2.696770         0.561134
 C        -0.350015         3.555727         1.665055
 C        -0.998015         2.570690         2.698649
 C        -0.754700         1.164149         2.105002
 C        -1.894647         3.424158         1.804529
 O        -2.562200         2.963456         0.753304
 C        -2.081192         1.727069         0.214504
 H         0.684067         0.234350        -0.253402
 H         1.252741         2.511757         0.792565
 H         0.225475         3.182588        -0.423201
 H         0.169315         4.439103         1.918124
 H        -0.942082         2.566744         3.745191
 H         0.180674         0.642396         2.538517
 H        -1.609441         0.465446         2.117285
 H        -2.376655         4.316102         2.138531
 H        -2.498850         0.798824         0.669310
 H        -2.236622         1.727617        -0.840326
