19
Iteration:  3286charge 0 multiplicity 1
 O        -0.210871         0.284769        -0.027837
 C        -0.676814         1.381188         0.647948
 C         0.231412         2.570379         0.620697
 C        -0.314671         3.576521         1.653856
 C        -0.988918         2.599903         2.661857
 C        -0.677690         1.173017         2.173772
 C        -1.864001         3.412937         1.799729
 O        -2.727181         2.834473         0.838218
 C        -1.991219         1.934159         0.015530
 H        -0.527861         0.280127        -0.948373
 H         1.265301         2.192616         0.614566
 H         0.188404         2.983250        -0.373884
 H         0.150548         4.462149         1.950936
 H        -1.061873         2.907136         3.719764
 H         0.380046         1.023679         2.376745
 H        -1.478264         0.507334         2.566896
 H        -2.313020         4.287856         2.243825
 H        -2.760865         1.203905        -0.264731
 H        -1.687838         2.514288        -0.924010
