19
Iteration:  4988charge 0 multiplicity 1
 O        -0.141436         0.255600        -0.098789
 C        -0.682465         1.388274         0.674515
 C         0.073348         2.680168         0.492987
 C        -0.337202         3.536389         1.660811
 C        -0.875855         2.639150         2.739244
 C        -0.812372         1.132132         2.153517
 C        -1.810831         3.451370         1.800777
 O        -2.575622         3.030417         0.681178
 C        -2.171443         1.667040         0.239450
 H         0.822043         0.403355        -0.122252
 H         1.154791         2.463698         0.558862
 H        -0.013955         3.228868        -0.484506
 H         0.158479         4.501740         1.805114
 H        -0.886489         2.913618         3.746531
 H         0.233537         0.639620         2.479881
 H        -1.638696         0.483619         2.282582
 H        -2.224364         4.302085         2.338406
 H        -2.894028         0.788382         0.561702
 H        -2.073713         1.820175        -0.824764
