19
Iteration:  2839
 O        -0.325307         0.156659        -0.012289
 C        -0.617424         1.454910         0.622470
 C         0.387266         2.717754         0.622370
 C        -0.292029         3.549011         1.630081
 C        -0.961777         2.630775         2.703926
 C        -0.946631         1.194424         2.117838
 C        -1.844825         3.445892         1.782219
 O        -2.649914         2.739589         0.912725
 C        -1.951063         1.917035        -0.033326
 H        -0.100176         0.369720        -0.947792
 H         1.417228         2.579282         0.744807
 H         0.315521         3.312322        -0.390014
 H         0.125629         4.466733         2.033922
 H        -0.903923         2.681229         3.781685
 H        -0.202494         0.593579         2.618741
 H        -1.983879         0.795877         2.224561
 H        -2.302700         4.300799         2.091579
 H        -2.495704         1.034689        -0.286952
 H        -1.785255         2.649385        -0.815272
