19
Iteration:  1925charge 0 multiplicity 1
 O        -0.140337         0.291750        -0.087617
 C        -0.659884         1.427043         0.635650
 C         0.383422         2.468930         0.797374
 C        -0.296781         3.425524         1.824282
 C        -1.137233         2.519655         2.693260
 C        -1.234900         1.123090         2.073822
 C        -1.833000         3.512311         1.768916
 O        -2.571591         3.000223         0.702502
 C        -1.864184         2.031451        -0.111744
 H         0.736980         0.031019         0.286279
 H         1.296366         2.001419         1.192362
 H         0.633929         2.998415        -0.127797
 H         0.222451         4.329620         2.072267
 H        -1.123795         2.650417         3.756726
 H        -0.506910         0.454929         2.595855
 H        -2.198904         0.716116         2.125772
 H        -2.165839         4.353611         2.333139
 H        -2.579737         1.239748        -0.447103
 H        -1.451644         2.514693        -1.011552
