19
Iteration:  2103charge 0 multiplicity 1
 O        -0.294862         0.273116        -0.024319
 C        -0.692277         1.437838         0.645630
 C         0.334414         2.523302         0.796487
 C        -0.340613         3.486386         1.764992
 C        -1.274901         2.410037         2.678239
 C        -0.927136         1.039846         2.150316
 C        -1.784463         3.452758         1.763136
 O        -2.445063         3.143602         0.585661
 C        -1.928374         2.041697        -0.084274
 H         0.519060        -0.069940         0.427255
 H         1.218388         2.147461         1.235709
 H         0.629707         3.140319        -0.110474
 H         0.262959         4.333689         2.201707
 H        -1.684653         2.368282         3.720614
 H         0.120519         0.736877         2.413573
 H        -1.702317         0.247869         2.309923
 H        -2.149063         4.369504         2.357677
 H        -2.629870         1.179921        -0.139909
 H        -1.625493         2.239809        -1.183066
