19
Iteration:  3395charge 0 multiplicity 1
 O        -0.151640         0.236023        -0.051579
 C        -0.609105         1.459784         0.625328
 C         0.186575         2.808656         0.549332
 C        -0.351252         3.579336         1.674847
 C        -0.943959         2.545838         2.606822
 C        -0.722906         1.117537         2.164192
 C        -1.866599         3.444847         1.851621
 O        -2.581499         2.929676         0.713910
 C        -2.131756         1.721947         0.179351
 H        -0.907561         0.043281        -0.672555
 H         1.239717         2.655767         0.625411
 H        -0.001296         3.040100        -0.479415
 H         0.226194         4.461938         2.051280
 H        -0.926686         2.868127         3.732483
 H         0.329583         0.708465         2.507805
 H        -1.644335         0.483143         2.504898
 H        -2.411905         4.252084         2.428190
 H        -2.836297         0.917331         0.632826
 H        -2.293437         1.839100        -0.949830
