19
Iteration:  1856charge 0 multiplicity 1
 O        -0.157815         0.298092        -0.105241
 C        -0.718256         1.404155         0.663810
 C         0.334899         2.560872         0.830017
 C        -0.260192         3.436409         1.831838
 C        -1.164225         2.401649         2.712910
 C        -1.028780         0.996893         2.155028
 C        -1.846837         3.497152         1.719411
 O        -2.501001         3.263582         0.565134
 C        -1.973629         1.933745        -0.080083
 H         0.552510        -0.118495         0.460957
 H         1.224000         2.187330         1.222442
 H         0.507226         2.958614        -0.186091
 H         0.260229         4.331109         2.246392
 H        -1.363558         2.475671         3.807526
 H        -0.169851         0.559070         2.665684
 H        -1.897581         0.264942         2.199385
 H        -2.500121         4.376421         2.204649
 H        -2.695931         1.062094        -0.111449
 H        -1.724778         2.214424        -1.077045
