19
Iteration:  3319charge 0 multiplicity 1
 O        -0.329383         0.280100        -0.112977
 C        -0.596074         1.454727         0.560757
 C         0.258121         2.693078         0.616022
 C        -0.414344         3.548738         1.664952
 C        -0.982739         2.585362         2.732305
 C        -0.728842         1.163575         2.142682
 C        -1.842479         3.430943         1.801162
 O        -2.607537         2.935346         0.745392
 C        -2.025359         1.735720         0.161734
 H         0.472422         0.183106        -0.614015
 H         1.281160         2.450275         0.889095
 H         0.141178         3.188191        -0.311129
 H        -0.011073         4.479514         1.979693
 H        -0.789945         2.841991         3.819244
 H         0.205369         0.690189         2.559218
 H        -1.469999         0.364605         2.457515
 H        -2.300446         4.353375         2.201077
 H        -2.736483         0.997648         0.496240
 H        -2.061966         1.714877        -0.956083
