19
Iteration:  4222
 O        -0.083872         0.299231        -0.076441
 C        -0.695667         1.463706         0.566386
 C         0.293951         2.706332         0.410758
 C        -0.280928         3.521182         1.604884
 C        -1.035096         2.595305         2.613130
 C        -0.647923         1.265934         2.140016
 C        -1.835594         3.491640         1.792342
 O        -2.727416         2.863175         0.848986
 C        -2.208222         1.696150         0.340117
 H        -0.811793        -0.360567        -0.076807
 H         1.324147         2.390376         0.572249
 H         0.194565         3.200718        -0.534224
 H         0.038132         4.535907         1.798178
 H        -0.800085         2.756938         3.665003
 H         0.360229         1.033896         2.526002
 H        -1.225004         0.302047         2.506689
 H        -2.231571         4.343204         2.226933
 H        -2.729682         0.748727         0.816143
 H        -2.456268         1.627959        -0.677677
