19
Iteration:   458charge 0 multiplicity 1
 O        -0.186089         0.314089        -0.194416
 C        -0.669859         1.401794         0.677529
 C         0.266341         2.618158         0.739869
 C        -0.319125         3.426113         1.952728
 C        -1.126973         2.483439         2.782912
 C        -1.070798         1.089220         2.163892
 C        -1.813887         3.427680         1.797505
 O        -2.390053         3.139153         0.464440
 C        -1.975681         1.908799        -0.040991
 H         0.376603        -0.264348         0.300662
 H         1.279834         2.261626         1.096679
 H         0.353831         3.317429        -0.159984
 H         0.302825         4.226055         2.474091
 H        -1.422391         2.540739         3.805876
 H        -0.337464         0.526093         2.743283
 H        -2.131874         0.675449         2.146594
 H        -2.367556         4.167544         2.245910
 H        -2.755345         1.122327         0.008812
 H        -1.787536         1.977955        -1.081587
