19
Iteration:   809charge 0 multiplicity 1
 O        -0.306506         0.280134        -0.084762
 C        -0.652691         1.475049         0.651202
 C         0.433189         2.602948         0.814336
 C        -0.286042         3.459623         1.908358
 C        -1.106712         2.453137         2.685786
 C        -1.070620         1.132870         2.064992
 C        -1.895350         3.421748         1.762468
 O        -2.536766         2.969859         0.628948
 C        -1.859078         1.992415        -0.092798
 H         0.623879         0.136700         0.210687
 H         1.447373         2.208845         1.131681
 H         0.479638         3.290824        -0.106233
 H         0.138372         4.504274         2.142714
 H        -1.423930         2.533466         3.696199
 H        -0.350682         0.522791         2.579653
 H        -2.154791         0.668510         2.069390
 H        -2.311776         4.233755         2.167857
 H        -2.421357         1.091005        -0.254322
 H        -1.524811         2.411237        -1.083416
