19
Iteration:  2692
 O        -0.091617         0.320119        -0.216138
 C        -0.647081         1.434307         0.631493
 C         0.372972         2.586403         0.707654
 C        -0.272145         3.491694         1.811586
 C        -1.114227         2.527446         2.669710
 C        -0.846654         1.196981         2.121399
 C        -1.825371         3.554475         1.715331
 O        -2.618991         3.059262         0.618237
 C        -2.192800         1.665003         0.263132
 H        -0.860465        -0.145003        -0.549888
 H         1.408671         2.298537         0.920017
 H         0.581483         3.003763        -0.269758
 H         0.355417         4.332460         2.097828
 H        -0.979064         2.725646         3.703562
 H         0.123732         0.931668         2.670428
 H        -1.527226         0.373516         2.364443
 H        -2.338868         4.457947         2.170491
 H        -2.877329         1.054525         0.962714
 H        -2.441637         1.485462        -0.761189
