19
Iteration:  4047charge 0 multiplicity 1
 O        -0.054667         0.261922         0.056493
 C        -0.745947         1.425429         0.600647
 C         0.150399         2.709337         0.372724
 C        -0.395920         3.682827         1.496738
 C        -0.859677         2.629423         2.602999
 C        -0.601799         1.140724         2.136255
 C        -1.837131         3.397758         1.922803
 O        -2.770406         2.897452         0.906592
 C        -2.158199         1.748596         0.166151
 H        -0.410973        -0.454645        -0.511659
 H         1.128711         2.268690         0.697795
 H         0.316678         2.954274        -0.637273
 H         0.140714         4.472019         1.936814
 H        -0.645011         2.992214         3.628984
 H         0.369203         0.863121         2.275063
 H        -1.418729         0.480460         2.584719
 H        -2.278921         4.373470         2.369424
 H        -2.667444         0.869801         0.447818
 H        -2.190482         1.881244        -0.976098
