19
Iteration:  1653
 O        -0.408804         0.301281        -0.236217
 C        -0.623933         1.368372         0.683809
 C         0.389389         2.594152         0.881624
 C        -0.381403         3.474205         1.929289
 C        -1.110549         2.523542         2.731013
 C        -0.990827         1.095662         2.148416
 C        -1.898410         3.447307         1.739458
 O        -2.440805         3.063698         0.545111
 C        -1.854097         1.911392        -0.043886
 H         0.404372        -0.216447         0.023872
 H         1.381923         2.569922         1.208962
 H         0.457396         3.077347        -0.085808
 H         0.094171         4.337774         2.317606
 H        -1.319298         2.701731         3.764633
 H        -0.093125         0.567781         2.631972
 H        -1.884487         0.457249         2.425067
 H        -2.368853         4.450386         2.045016
 H        -2.461433         1.072789        -0.387894
 H        -1.220578         2.225217        -0.935770
