19
Iteration:   319charge 0 multiplicity 1
 O        -0.119573         0.318338        -0.003110
 C        -0.748932         1.419648         0.625765
 C         0.403596         2.499244         0.760023
 C        -0.279027         3.390024         1.748339
 C        -1.113337         2.478651         2.651104
 C        -1.167530         1.166933         2.001089
 C        -1.824731         3.465779         1.873114
 O        -2.593052         3.013685         0.705409
 C        -1.899487         2.048343        -0.110122
 H         0.521590         0.115410         0.683522
 H         1.259512         2.070505         1.312681
 H         0.597980         2.942062        -0.123501
 H         0.375872         4.098477         2.475817
 H        -0.848336         2.383341         3.677436
 H        -0.373018         0.482946         2.433639
 H        -2.136062         0.787908         2.080618
 H        -2.404247         4.289378         2.089280
 H        -2.637565         1.339808        -0.577844
 H        -1.638017         2.613695        -1.087385
