19
Iteration:  2217charge 0 multiplicity 1
 O        -0.285370         0.189214        -0.009450
 C        -0.641932         1.432806         0.652344
 C         0.298682         2.590298         0.757768
 C        -0.325668         3.466618         1.844408
 C        -1.163363         2.481837         2.649766
 C        -0.958625         1.109450         2.095740
 C        -1.799919         3.545054         1.756917
 O        -2.532805         3.067253         0.617980
 C        -1.823605         1.911591         0.007274
 H        -0.600328         0.350749        -0.940682
 H         1.293550         2.335622         1.255405
 H         0.510409         3.188450        -0.104526
 H         0.288093         4.281037         2.415543
 H        -1.105221         2.685103         3.764606
 H        -0.008311         0.589705         2.370745
 H        -1.887809         0.383071         2.146761
 H        -2.461282         4.345812         2.188340
 H        -2.523124         1.062230        -0.081310
 H        -1.674999         2.278472        -1.123020
