19
Iteration:  4952
 O        -0.288550         0.319192        -0.174755
 C        -0.640922         1.440288         0.663685
 C         0.179609         2.681336         0.514567
 C        -0.244590         3.527029         1.711304
 C        -0.963049         2.641353         2.711400
 C        -0.774095         1.247859         2.176097
 C        -1.832186         3.519764         1.728566
 O        -2.630942         2.865484         0.761889
 C        -2.056056         1.641243         0.234349
 H         0.473368        -0.254539         0.023350
 H         1.231067         2.342517         0.532180
 H        -0.040552         3.272661        -0.349681
 H         0.266079         4.470683         1.938010
 H        -1.024220         2.798772         3.806425
 H         0.214230         0.844239         2.586499
 H        -1.492623         0.355696         2.404337
 H        -2.440899         4.312728         2.099551
 H        -2.804502         0.788360         0.349728
 H        -1.933438         1.787628        -0.869948
