19
Iteration:  3730
 O        -0.130108         0.213735         0.086015
 C        -0.678704         1.487462         0.583954
 C         0.202843         2.802105         0.324533
 C        -0.387603         3.584884         1.564345
 C        -0.879220         2.625578         2.684835
 C        -0.767218         1.235251         2.080085
 C        -1.820778         3.447381         1.851201
 O        -2.669691         2.722717         0.998762
 C        -2.124433         1.751013         0.147625
 H         0.020624         0.233603        -0.895866
 H         1.283415         2.671253         0.436523
 H        -0.043637         3.334343        -0.610662
 H         0.064035         4.559432         1.712577
 H        -0.654178         2.772662         3.754893
 H         0.126188         0.590792         2.460664
 H        -1.584189         0.541645         2.262234
 H        -2.274780         4.358703         2.142205
 H        -2.802556         0.827748         0.250517
 H        -2.110849         1.970780        -0.893502
