19
Iteration:   736
 O        -0.265485         0.333222        -0.094769
 C        -0.678080         1.411555         0.630670
 C         0.385827         2.606367         0.860242
 C        -0.324419         3.461616         1.912932
 C        -1.144856         2.450436         2.652073
 C        -0.987807         1.054965         2.032958
 C        -1.874822         3.501499         1.746060
 O        -2.493746         3.098896         0.572014
 C        -1.938462         1.917037        -0.045221
 H         0.545545        -0.057200         0.347614
 H         1.126509         1.997481         1.311298
 H         0.742480         2.941514        -0.073804
 H         0.096488         4.320279         2.454701
 H        -1.158870         2.522604         3.737553
 H        -0.033537         0.617844         2.422989
 H        -1.778855         0.397391         2.208268
 H        -2.255280         4.326101         2.283293
 H        -2.710759         1.135728         0.077424
 H        -1.912554         2.109239        -1.097381
