19
Iteration:  4696charge 0 multiplicity 1
 O        -0.417063         0.215179        -0.071802
 C        -0.672804         1.467316         0.639728
 C         0.184946         2.756516         0.541250
 C        -0.320063         3.635229         1.662714
 C        -0.887622         2.695586         2.821970
 C        -0.761940         1.208013         2.101224
 C        -1.861551         3.332396         1.899702
 O        -2.523799         2.854963         0.666154
 C        -2.015355         1.715778         0.074662
 H         0.561055         0.093754        -0.092980
 H         1.207627         2.417345         0.678757
 H         0.125297         3.249613        -0.393130
 H         0.301151         4.475194         2.082261
 H        -0.843476         2.911351         3.892416
 H         0.021513         0.543023         2.343138
 H        -1.737576         0.557743         2.403710
 H        -2.489970         4.138599         2.363522
 H        -2.619890         0.770906         0.122446
 H        -1.701074         2.045096        -1.009551
