19
Iteration:  4089charge 0 multiplicity 1
 O        -0.206584         0.314701        -0.080421
 C        -0.626098         1.403198         0.639238
 C         0.085166         2.704797         0.342650
 C        -0.250864         3.628392         1.571339
 C        -0.910135         2.673287         2.664183
 C        -0.704445         1.254239         2.318350
 C        -1.830749         3.490436         1.806760
 O        -2.624421         2.725242         0.903830
 C        -2.099467         1.640895         0.185292
 H        -0.378890         0.551547        -1.006395
 H         1.149263         2.535276         0.372292
 H        -0.257205         3.059098        -0.611798
 H         0.299939         4.523639         1.809908
 H        -0.711663         2.825936         3.732321
 H         0.118668         0.853373         3.046424
 H        -1.654976         0.531532         2.323930
 H        -2.539341         4.370786         2.184166
 H        -2.818913         0.759376         0.357955
 H        -2.099789         1.857193        -0.910781
