19
Iteration:  3057
 O        -0.318582         0.194364        -0.147612
 C        -0.611753         1.405216         0.672230
 C         0.334282         2.577410         0.596886
 C        -0.311316         3.531978         1.624996
 C        -0.996449         2.632611         2.708796
 C        -0.832278         1.184030         2.288072
 C        -1.927537         3.404779         1.752829
 O        -2.746196         2.825663         0.864380
 C        -1.902966         2.058372        -0.028959
 H         0.402353         0.444195        -0.776885
 H         1.230031         2.209778         1.055669
 H         0.441931         2.990379        -0.406464
 H         0.124060         4.558240         1.892395
 H        -0.806989         2.707477         3.788040
 H         0.185042         0.937265         2.622004
 H        -1.543907         0.379822         2.690068
 H        -2.361501         4.235981         2.413244
 H        -2.333141         1.111918        -0.410977
 H        -1.575482         2.618943        -0.913453
