19
Iteration:  2948charge 0 multiplicity 1
 O        -0.176607         0.242556        -0.103054
 C        -0.705982         1.396689         0.654004
 C         0.204745         2.597900         0.693572
 C        -0.367512         3.462965         1.799586
 C        -1.078647         2.513386         2.686914
 C        -0.631441         1.101387         2.119011
 C        -1.818923         3.423347         1.784154
 O        -2.515580         3.170485         0.467058
 C        -2.194668         1.851874         0.264364
 H         0.074359         0.425075        -1.010988
 H         1.222867         2.347153         0.905260
 H         0.175955         3.294903        -0.252808
 H         0.146335         4.449561         2.090706
 H        -1.236704         2.543362         3.792907
 H         0.438839         0.968181         2.404798
 H        -1.197199         0.244931         2.637170
 H        -2.347103         4.237472         2.310664
 H        -2.928872         1.157586         0.856524
 H        -2.396322         1.611997        -0.789671
