19
Iteration:   800
 O        -0.290169         0.297783        -0.098925
 C        -0.629200         1.451490         0.656243
 C         0.337071         2.649033         0.796807
 C        -0.267168         3.528615         1.934085
 C        -1.144727         2.497681         2.705555
 C        -1.105632         1.063625         2.100647
 C        -1.767945         3.440086         1.740324
 O        -2.512037         2.935226         0.676809
 C        -1.862151         1.963164        -0.169945
 H         0.580837        -0.135447         0.027931
 H         1.325730         2.418688         1.188478
 H         0.416488         3.163788        -0.203591
 H         0.166401         4.430730         2.465382
 H        -1.368187         2.648161         3.778128
 H        -0.517529         0.294057         2.586994
 H        -2.155535         0.718440         2.053584
 H        -2.432605         4.236039         2.077141
 H        -2.611873         1.164833        -0.337945
 H        -1.524480         2.265537        -1.251827
