19
Iteration:  4043charge 0 multiplicity 1
 O        -0.045320         0.272313         0.033858
 C        -0.749272         1.410603         0.622169
 C         0.156856         2.691904         0.385548
 C        -0.434519         3.646244         1.458379
 C        -0.848107         2.618681         2.646791
 C        -0.619547         1.143608         2.158918
 C        -1.851788         3.417660         1.899455
 O        -2.764577         2.910959         0.900104
 C        -2.117852         1.762191         0.169875
 H        -0.577797        -0.339481        -0.495384
 H         1.062750         2.268345         0.737565
 H         0.229872         3.028005        -0.691749
 H         0.156922         4.540005         1.889685
 H        -0.630678         3.005224         3.614771
 H         0.582076         0.844556         2.151853
 H        -1.341894         0.421787         2.694702
 H        -2.254056         4.340634         2.378296
 H        -2.762151         0.771952         0.370624
 H        -2.172066         1.955076        -0.882740
