19
Iteration:   396
 O        -0.193891         0.258887        -0.108509
 C        -0.690984         1.364453         0.652187
 C         0.415376         2.598581         0.827435
 C        -0.351509         3.394167         1.849622
 C        -1.177202         2.428181         2.708712
 C        -1.002196         1.069407         2.154141
 C        -1.780868         3.459617         1.771532
 O        -2.509620         3.214669         0.552309
 C        -2.041607         1.973469        -0.111883
 H         0.699889         0.042893         0.113608
 H         1.252640         2.075378         1.364727
 H         0.669749         3.082766        -0.053875
 H        -0.104579         4.474350         2.310252
 H        -1.368577         2.507201         3.732129
 H        -0.045056         0.634015         2.607901
 H        -1.641800         0.282060         2.334384
 H        -2.242043         4.308360         2.189470
 H        -2.931523         1.246072        -0.018662
 H        -1.721121         2.377599        -1.116258
