19
Iteration:  4049
 O        -0.057231         0.257798         0.063978
 C        -0.737633         1.430565         0.592346
 C         0.146900         2.711107         0.380582
 C        -0.378459         3.685559         1.511811
 C        -0.857196         2.629164         2.589654
 C        -0.609680         1.153674         2.125362
 C        -1.840082         3.405484         1.923315
 O        -2.767524         2.887929         0.910054
 C        -2.178222         1.742469         0.162483
 H        -0.384858        -0.460896        -0.511992
 H         1.178552         2.304391         0.680774
 H         0.329436         2.963675        -0.684087
 H         0.154431         4.483902         1.942053
 H        -0.653823         2.952398         3.636753
 H         0.344757         0.830594         2.371955
 H        -1.382606         0.533847         2.491155
 H        -2.278614         4.278905         2.343377
 H        -2.690102         0.883495         0.479098
 H        -2.205785         1.861836        -0.955158
