19
Iteration:   161
 O        -0.227222         0.255078        -0.141744
 C        -0.678001         1.403783         0.613466
 C         0.346467         2.526991         0.833750
 C        -0.373507         3.470333         1.841843
 C        -1.167169         2.457646         2.702392
 C        -0.937837         1.039023         2.124618
 C        -1.867657         3.485441         1.798470
 O        -2.451103         3.179035         0.531231
 C        -1.959455         2.002081        -0.033840
 H         0.519245        -0.140666         0.355703
 H         1.219558         2.260964         1.372121
 H         0.543209         3.067871        -0.075119
 H         0.148729         4.347418         2.284770
 H        -1.472869         2.539239         3.719084
 H        -0.019864         0.620727         2.607561
 H        -1.778905         0.385831         2.446698
 H        -2.404640         4.285487         2.199545
 H        -2.685827         1.123416         0.220665
 H        -1.803476         2.005631        -1.150246
