19
Iteration:   679
 O        -0.142416         0.342786        -0.078631
 C        -0.717885         1.413935         0.630499
 C         0.244850         2.609483         0.739126
 C        -0.275250         3.408065         1.920736
 C        -1.201702         2.422209         2.692076
 C        -1.004486         1.076693         2.083912
 C        -1.808589         3.454968         1.822364
 O        -2.407175         3.215633         0.513851
 C        -2.004765         1.859113         0.001276
 H         0.526985        -0.061183         0.453354
 H         1.127287         2.097710         1.022979
 H         0.422987         3.103057        -0.226975
 H         0.408880         4.331389         2.167144
 H        -1.552818         2.512119         3.709608
 H        -0.257916         0.472622         2.580466
 H        -1.891935         0.428544         2.105078
 H        -2.364876         4.262727         2.226680
 H        -2.757878         1.079295         0.214748
 H        -1.881962         1.974657        -1.108936
