19
Iteration:  4332charge 0 multiplicity 1
 O        -0.127150         0.356849        -0.130764
 C        -0.723654         1.395532         0.653711
 C         0.223419         2.640041         0.530502
 C        -0.362475         3.537160         1.572255
 C        -0.839550         2.698699         2.646539
 C        -0.719358         1.229350         2.179369
 C        -1.880459         3.431151         1.815631
 O        -2.679636         2.831841         0.858467
 C        -2.112076         1.717387         0.181291
 H        -0.780449        -0.383957        -0.089033
 H         1.320537         2.485663         0.774508
 H         0.243727         3.021807        -0.519496
 H         0.177278         4.555074         1.662032
 H        -0.646667         2.991535         3.692583
 H         0.223730         0.762572         2.448112
 H        -1.641705         0.636057         2.547927
 H        -2.337527         4.369095         2.265392
 H        -2.933593         0.885245         0.270472
 H        -1.978437         1.922404        -0.848809
