19
Iteration:  3191
 O        -0.313570         0.210169        -0.101975
 C        -0.653256         1.430672         0.622631
 C         0.261814         2.654251         0.627393
 C        -0.368340         3.613030         1.708928
 C        -1.053297         2.541869         2.612447
 C        -0.634428         1.103387         2.151755
 C        -1.851358         3.453140         1.813642
 O        -2.653221         3.037492         0.712029
 C        -2.035692         1.786295         0.119798
 H         0.666195         0.124300        -0.272777
 H         1.263795         2.485014         0.997822
 H         0.456434         3.132910        -0.376528
 H         0.041634         4.334249         2.398737
 H        -1.130376         2.658823         3.741016
 H         0.355328         0.855213         2.524647
 H        -1.444509         0.386412         2.403672
 H        -2.340495         4.217029         2.407201
 H        -2.684908         0.862583         0.239818
 H        -1.944862         2.047409        -0.913476
