19
Iteration:  2284charge 0 multiplicity 1
 O        -0.062648         0.246587        -0.087497
 C        -0.697667         1.414244         0.574631
 C         0.348236         2.679992         0.690901
 C        -0.270926         3.457924         1.816357
 C        -1.221869         2.462038         2.660771
 C        -1.017196         1.065796         2.094006
 C        -1.756379         3.505779         1.778479
 O        -2.491208         3.177475         0.598753
 C        -2.097344         1.846674         0.095706
 H         0.086124        -0.343256         0.661287
 H         1.350825         2.184157         0.769921
 H         0.296842         3.257275        -0.209361
 H         0.319491         4.223963         2.382825
 H        -1.338799         2.550732         3.733621
 H        -0.209159         0.480583         2.609380
 H        -1.896911         0.375054         2.288552
 H        -2.211682         4.355507         2.294606
 H        -2.849858         1.216492         0.566958
 H        -2.352038         1.793124        -1.025941
