19
Iteration:  2916
 O        -0.243664         0.351852        -0.215384
 C        -0.643923         1.404562         0.697611
 C         0.250376         2.680861         0.585301
 C        -0.284706         3.456678         1.821925
 C        -1.110373         2.548160         2.641645
 C        -0.867611         1.073403         2.172155
 C        -1.832540         3.496203         1.758830
 O        -2.396811         2.996732         0.530415
 C        -2.114302         1.705105         0.363232
 H         0.061285         0.807837        -1.039378
 H         1.253991         2.475846         0.721232
 H        -0.078269         3.397392        -0.294390
 H         0.186674         4.338006         2.390695
 H        -1.040690         2.831485         3.709785
 H         0.049545         0.892787         2.749370
 H        -1.711362         0.476095         2.628866
 H        -2.371351         4.389364         2.182725
 H        -2.917785         1.102424         0.879208
 H        -2.173795         1.384501        -0.672042
