19
Iteration:  1986charge 0 multiplicity 1
 O        -0.413526         0.306965        -0.058951
 C        -0.600970         1.504298         0.634266
 C         0.372223         2.621339         0.839214
 C        -0.328528         3.400268         1.888793
 C        -1.198143         2.483249         2.714720
 C        -1.036308         1.179929         2.139141
 C        -1.794995         3.462551         1.804667
 O        -2.462836         2.969733         0.581876
 C        -1.810141         1.951533        -0.186216
 H         0.328578        -0.305166        -0.057053
 H         1.381897         1.978939         0.992746
 H         0.341936         3.160078        -0.135585
 H         0.240026         4.085306         2.481529
 H        -1.255833         2.719314         3.781777
 H        -0.162044         0.665862         2.559314
 H        -1.951651         0.462106         2.090707
 H        -2.557241         4.221312         2.238230
 H        -2.415027         1.045227        -0.360415
 H        -1.405379         2.365483        -1.179072
