19
Iteration:  4818charge 0 multiplicity 1
 O        -0.253657         0.177982         0.019477
 C        -0.693055         1.402952         0.601374
 C         0.180512         2.640461         0.534940
 C        -0.312152         3.521426         1.644850
 C        -1.010590         2.580118         2.683870
 C        -0.621516         1.253560         2.148401
 C        -1.813308         3.526346         1.792107
 O        -2.717685         2.884788         0.817007
 C        -2.068284         1.829754         0.095565
 H         0.364144         0.514533        -0.673264
 H         1.251378         2.458957         0.710970
 H         0.202462         3.133404        -0.397203
 H         0.200181         4.468851         1.775187
 H        -0.808100         2.813024         3.705954
 H         0.425510         1.000581         2.361719
 H        -1.257291         0.302604         2.524516
 H        -2.438082         4.181985         2.366660
 H        -2.697870         0.963627         0.037166
 H        -1.886152         2.151943        -1.003006
