19
Iteration:  2482
 O        -0.195159         0.359680        -0.169136
 C        -0.693610         1.325695         0.771189
 C         0.169691         2.667927         0.605830
 C        -0.277164         3.482362         1.772433
 C        -1.126573         2.534211         2.717392
 C        -0.869661         1.034205         2.308930
 C        -1.727057         3.458107         1.719447
 O        -2.502833         3.113918         0.594336
 C        -2.094100         1.765002         0.055350
 H         0.772974         0.256406        -0.195105
 H         1.282785         2.329088         0.626441
 H         0.084404         3.055445        -0.388262
 H         0.317167         4.324435         2.222071
 H        -1.321469         2.815371         3.843159
 H         0.047584         0.567463         2.797207
 H        -1.813623         0.455834         2.493785
 H        -2.211855         4.442700         2.088178
 H        -2.995782         1.141375         0.116212
 H        -1.807513         1.884605        -1.022373
