19
Iteration:   418
 O        -0.146265         0.290013        -0.085385
 C        -0.690640         1.409012         0.594576
 C         0.222830         2.580968         0.749407
 C        -0.263777         3.377034         1.910141
 C        -1.226086         2.436060         2.688973
 C        -1.041249         1.126820         2.073595
 C        -1.837004         3.532548         1.831376
 O        -2.421536         3.142357         0.541569
 C        -1.940906         1.918167         0.012457
 H         0.725346         0.090318         0.376409
 H         1.209190         2.095717         0.962002
 H         0.187771         3.033630        -0.183035
 H         0.588260         3.942888         2.528522
 H        -1.442426         2.567628         3.715705
 H        -0.217096         0.492186         2.533769
 H        -1.831391         0.453292         2.030438
 H        -2.430558         4.387458         2.088672
 H        -2.844534         1.249566         0.170801
 H        -1.769459         2.266774        -1.060790
