19
Iteration:  4514
 O        -0.127029         0.286512        -0.134066
 C        -0.658118         1.351768         0.706502
 C         0.096598         2.625933         0.490024
 C        -0.320639         3.513422         1.732428
 C        -1.019751         2.647804         2.675508
 C        -0.780520         1.158235         2.242269
 C        -1.794076         3.552788         1.748036
 O        -2.571426         2.911114         0.756802
 C        -2.026320         1.772029         0.197609
 H        -0.748537         0.184819        -0.871283
 H         1.097098         2.399928         0.359687
 H        -0.216413         3.050684        -0.492173
 H         0.319681         4.432857         1.986194
 H        -1.058969         2.700736         3.766324
 H         0.209596         0.664224         2.578206
 H        -1.617793         0.578425         2.447153
 H        -2.352097         4.485200         2.154802
 H        -2.786702         0.973354         0.317924
 H        -1.861936         1.959221        -0.916024
