19
Iteration:  1911charge 0 multiplicity 1
 O        -0.294718         0.280515        -0.102170
 C        -0.711699         1.394064         0.640495
 C         0.401955         2.634756         0.876645
 C        -0.272569         3.408755         1.846134
 C        -1.159189         2.500891         2.770170
 C        -1.076842         1.148808         2.143673
 C        -1.725663         3.449480         1.719361
 O        -2.539278         2.942405         0.642409
 C        -1.865605         2.046290        -0.197261
 H         0.637128         0.091205         0.127069
 H         1.296272         2.347453         1.260993
 H         0.499312         3.072988        -0.123595
 H         0.211882         4.157662         2.466719
 H        -1.415117         2.670184         3.836507
 H        -0.525264         0.347356         2.639898
 H        -2.108243         0.661524         2.087012
 H        -2.399154         4.408119         1.815707
 H        -2.610427         1.228630        -0.428589
 H        -1.561691         2.506773        -1.122932
