19
Iteration:  1424
 O        -0.263854         0.389542        -0.182395
 C        -0.740446         1.389389         0.649809
 C         0.347907         2.549075         0.929631
 C        -0.366414         3.402968         1.857647
 C        -1.163849         2.506125         2.659619
 C        -0.908710         1.059397         2.189781
 C        -1.853800         3.470115         1.730514
 O        -2.533737         3.064432         0.577912
 C        -1.904907         1.958131        -0.074753
 H         0.611390        -0.004603         0.109640
 H         1.254889         2.127157         1.460402
 H         0.639083         2.867676        -0.105935
 H         0.398436         4.239707         2.163431
 H        -1.222029         2.834877         3.710513
 H         0.066305         0.686755         2.467383
 H        -1.648443         0.211851         2.562728
 H        -2.206370         4.450595         1.959373
 H        -2.573092         1.117690        -0.124119
 H        -1.721225         2.245925        -1.051771
