19
Iteration:  2275
 O        -0.088898         0.294077        -0.089006
 C        -0.715633         1.371316         0.634845
 C         0.320936         2.579194         0.707322
 C        -0.244217         3.453710         1.880020
 C        -1.179540         2.464138         2.650344
 C        -1.021620         1.060085         2.051914
 C        -1.792233         3.587376         1.734399
 O        -2.469359         3.169776         0.602081
 C        -2.161640         1.829646         0.114834
 H         0.502190        -0.203348         0.497734
 H         1.400801         2.355661         0.944047
 H         0.348854         3.184040        -0.224433
 H         0.247456         4.292424         2.302432
 H        -1.188142         2.641241         3.676978
 H        -0.050129         0.621595         2.431563
 H        -1.799885         0.316806         2.053841
 H        -2.348612         4.395273         2.155781
 H        -2.838636         1.020594         0.481966
 H        -2.046345         1.874195        -1.025613
