19
Iteration:  2923charge 0 multiplicity 1
 O        -0.260716         0.345479        -0.203662
 C        -0.697697         1.433797         0.682737
 C         0.288025         2.715046         0.589762
 C        -0.319260         3.488848         1.834135
 C        -1.157592         2.504807         2.616998
 C        -0.822621         1.083341         2.178069
 C        -1.816686         3.551286         1.715630
 O        -2.374625         3.026921         0.521084
 C        -2.121431         1.665520         0.429213
 H         0.134354         0.610997        -1.040312
 H         1.347811         2.266631         0.734646
 H         0.175285         3.304497        -0.288664
 H         0.047586         4.284086         2.410069
 H        -1.005488         2.583479         3.674017
 H         0.149246         0.845925         2.673084
 H        -1.509547         0.255704         2.473643
 H        -2.418259         4.205003         2.203307
 H        -2.835485         0.946000         0.949226
 H        -2.382265         1.489844        -0.640519
