19
Iteration:  1781
 O        -0.305782         0.294088        -0.051166
 C        -0.713920         1.412482         0.645593
 C         0.321045         2.530453         0.829458
 C        -0.335175         3.440828         1.804160
 C        -1.242414         2.368146         2.742671
 C        -0.913575         1.038250         2.163890
 C        -1.830721         3.429108         1.821655
 O        -2.417352         3.210841         0.492945
 C        -1.928588         2.031501        -0.135364
 H         0.533968        -0.055951         0.214484
 H         1.359733         2.331786         1.281111
 H         0.540822         3.077461        -0.145142
 H         0.149937         4.174038         2.443770
 H        -1.387283         2.669100         3.778036
 H         0.147067         0.825797         2.354500
 H        -1.544274         0.234570         2.395516
 H        -2.441670         4.338643         2.167779
 H        -2.711398         1.217425        -0.085129
 H        -1.596738         2.162001        -1.151274
