19
Iteration:  1479charge 0 multiplicity 1
 O        -0.178958         0.310184        -0.061717
 C        -0.738266         1.342515         0.642826
 C         0.279284         2.673531         0.718297
 C        -0.254228         3.454858         1.908650
 C        -1.112234         2.484526         2.759702
 C        -1.208288         1.159868         2.059512
 C        -1.766201         3.554512         1.768026
 O        -2.501373         2.895028         0.719907
 C        -1.836132         1.926372        -0.187278
 H         0.735553         0.204839         0.279506
 H         1.312206         2.281803         0.967846
 H         0.180302         3.173627        -0.268354
 H         0.428490         4.301655         2.266812
 H        -1.063596         2.661773         3.794168
 H        -0.719793         0.313733         2.498873
 H        -2.337981         0.821991         1.927871
 H        -2.365695         4.215682         2.342960
 H        -2.541657         1.220165        -0.602279
 H        -1.343869         2.421167        -0.977981
