19
Iteration:  1116
 O        -0.117141         0.295566        -0.099296
 C        -0.657386         1.364274         0.656637
 C         0.300641         2.692881         0.757302
 C        -0.292407         3.403046         1.859179
 C        -1.185163         2.479787         2.695168
 C        -1.021416         1.083551         2.103016
 C        -1.792994         3.460324         1.747485
 O        -2.530568         3.102326         0.637834
 C        -1.976676         1.915628        -0.049960
 H         0.499222        -0.185459         0.526391
 H         1.330964         2.384292         0.876773
 H         0.355203         3.268862        -0.177029
 H         0.066060         4.277325         2.184204
 H        -1.385349         2.466503         3.761989
 H        -0.337527         0.457667         2.617759
 H        -1.995075         0.480451         2.112332
 H        -2.364963         4.296024         2.239210
 H        -2.860104         1.189465        -0.087201
 H        -1.669358         2.266589        -1.106517
