19
Iteration:  4207charge 0 multiplicity 1
 O        -0.065028         0.365685        -0.062683
 C        -0.676509         1.396289         0.646709
 C         0.144608         2.679706         0.483089
 C        -0.380811         3.562687         1.540437
 C        -0.847036         2.653007         2.693280
 C        -0.669424         1.179150         2.161938
 C        -1.808618         3.462662         1.716449
 O        -2.700381         2.916055         0.863333
 C        -2.219308         1.619253         0.250486
 H        -0.679965        -0.159195        -0.631211
 H         1.183455         2.365336         0.736661
 H         0.129862         3.159249        -0.597295
 H         0.345506         4.275652         1.895191
 H        -0.863768         3.004926         3.724143
 H         0.385110         0.784183         2.394715
 H        -1.421707         0.525374         2.457354
 H        -2.283736         4.400847         2.158655
 H        -2.800183         0.815191         0.789297
 H        -2.492750         1.747604        -0.846104
