19
Iteration:  4677
 O        -0.252992         0.227910        -0.025368
 C        -0.676174         1.376269         0.634468
 C         0.169855         2.694230         0.528477
 C        -0.356864         3.536463         1.693279
 C        -0.896900         2.551592         2.682123
 C        -0.777196         1.191973         2.234421
 C        -1.800869         3.494538         1.775603
 O        -2.672520         2.898070         0.791504
 C        -2.035883         1.823366        -0.006857
 H         0.706392         0.298296        -0.238947
 H         1.321844         2.468936         0.546895
 H         0.026228         3.260132        -0.432363
 H         0.208392         4.464951         1.958852
 H        -0.840376         2.667084         3.711325
 H         0.177967         0.763935         2.610701
 H        -1.561641         0.551676         2.612740
 H        -2.257441         4.333585         2.250150
 H        -2.772086         0.942451         0.017608
 H        -1.955901         2.262130        -0.993088
