19
Iteration:  3864charge 0 multiplicity 1
 O        -0.041703         0.406614        -0.112084
 C        -0.743285         1.324592         0.680896
 C         0.041508         2.650761         0.355540
 C        -0.351461         3.543340         1.588679
 C        -0.885923         2.607593         2.723726
 C        -0.538666         1.215326         2.265466
 C        -1.803340         3.489012         1.745682
 O        -2.779977         2.821279         0.856375
 C        -2.157986         1.727931         0.238427
 H        -0.563909        -0.384355        -0.382246
 H         1.056715         2.567200         0.440437
 H        -0.034925         3.211764        -0.584897
 H         0.311335         4.405720         1.590028
 H        -0.682404         3.102324         3.676037
 H         0.591533         0.981152         2.463273
 H        -1.179032         0.501895         2.747490
 H        -2.256523         4.462632         2.224038
 H        -2.979611         0.897736         0.337913
 H        -2.081976         1.958691        -0.799506
