19
Iteration:  1001charge 0 multiplicity 1
 O        -0.104411         0.403883        -0.089542
 C        -0.766101         1.395323         0.666967
 C         0.243608         2.573889         0.743719
 C        -0.317389         3.403638         1.849758
 C        -1.131305         2.436278         2.708311
 C        -1.049228         1.101952         2.157310
 C        -1.816025         3.459480         1.756058
 O        -2.501048         3.048645         0.588260
 C        -1.928140         1.959215        -0.081793
 H         0.685902         0.139494         0.462193
 H         1.230581         2.158367         0.952282
 H         0.368396         2.978433        -0.245967
 H         0.293888         4.145244         2.471393
 H        -1.097964         2.573225         3.751846
 H        -0.293250         0.439812         2.620322
 H        -1.940734         0.572247         2.280968
 H        -2.278965         4.319899         2.131746
 H        -2.745453         1.227901        -0.173492
 H        -1.595535         2.310582        -1.046673
