19
Iteration:  3581
 O        -0.097937         0.295055         0.044428
 C        -0.717444         1.441096         0.595956
 C         0.129369         2.773886         0.426523
 C        -0.304856         3.535307         1.672838
 C        -0.981522         2.593929         2.702633
 C        -0.718527         1.201167         2.061967
 C        -1.794004         3.503385         1.826878
 O        -2.587539         2.891585         0.788816
 C        -2.159224         1.603542         0.224429
 H        -0.323733         0.305460        -0.923760
 H         1.188026         2.428994         0.241015
 H        -0.144885         3.277273        -0.541430
 H         0.160758         4.448696         2.041173
 H        -0.852252         2.759784         3.769367
 H         0.228425         0.857689         2.259654
 H        -1.484878         0.488575         2.241933
 H        -2.333406         4.239785         2.348739
 H        -2.724688         0.846888         0.764166
 H        -2.418484         1.589230        -0.861290
