19
Iteration:  3386
 O        -0.082883         0.318903        -0.061891
 C        -0.701753         1.397104         0.705309
 C         0.109242         2.758058         0.445666
 C        -0.333085         3.574714         1.661911
 C        -0.970121         2.526090         2.634900
 C        -0.747580         1.158988         2.193554
 C        -1.861652         3.392404         1.846543
 O        -2.526570         3.039044         0.735899
 C        -2.092550         1.668446         0.132580
 H        -0.816828        -0.249721        -0.419297
 H         1.182447         2.486320         0.529218
 H        -0.212546         3.221839        -0.468346
 H         0.294778         4.385552         2.159645
 H        -0.799211         2.830947         3.709359
 H         0.245289         0.724240         2.564441
 H        -1.478858         0.321150         2.531765
 H        -2.488848         4.119889         2.390606
 H        -2.826825         0.900713         0.504356
 H        -2.400077         1.885507        -0.936268
