19
Iteration:   169charge 0 multiplicity 1
 O        -0.231257         0.251927        -0.149849
 C        -0.663020         1.351318         0.682708
 C         0.269682         2.644203         0.829374
 C        -0.359274         3.447385         1.907075
 C        -1.119456         2.447668         2.728970
 C        -0.980238         1.022887         2.105827
 C        -1.856732         3.533488         1.796671
 O        -2.445808         3.202736         0.488071
 C        -1.936233         1.879262        -0.048442
 H         0.491191        -0.190046         0.307759
 H         1.255314         2.297372         1.149090
 H         0.611535         3.128593        -0.170470
 H         0.147573         4.448260         2.209579
 H        -1.215235         2.570652         3.787002
 H        -0.129776         0.597214         2.531185
 H        -1.876767         0.294782         2.244989
 H        -2.341028         4.354910         2.280737
 H        -2.810906         1.228886         0.056874
 H        -1.790099         2.143181        -1.049823
