19
Iteration:  4548charge 0 multiplicity 1
 O        -0.131783         0.376217        -0.119837
 C        -0.711943         1.427729         0.598147
 C         0.288115         2.625389         0.495625
 C        -0.345585         3.535284         1.679867
 C        -0.907120         2.566443         2.722229
 C        -0.861376         1.179771         2.193922
 C        -1.841478         3.517955         1.789661
 O        -2.600145         2.887169         0.755437
 C        -2.146981         1.744466         0.159557
 H        -0.205345        -0.420668         0.442586
 H         1.175272         2.205802         0.788732
 H         0.448653         3.101304        -0.499868
 H         0.204010         4.487165         2.011506
 H        -0.750605         2.911062         3.706889
 H         0.026809         0.511471         2.452490
 H        -1.745020         0.679059         2.480028
 H        -2.330791         4.439245         2.151823
 H        -2.864767         0.927447         0.377363
 H        -2.162421         1.840944        -0.957399
