19
Iteration:   823charge 0 multiplicity 1
 O        -0.246809         0.288055        -0.064002
 C        -0.601280         1.457251         0.614617
 C         0.439039         2.541996         0.800931
 C        -0.353515         3.373256         1.781529
 C        -1.237535         2.509322         2.763351
 C        -0.996751         1.139843         2.067252
 C        -1.854784         3.431464         1.820375
 O        -2.638752         3.062450         0.619878
 C        -1.850787         2.013699        -0.096823
 H         0.653791        -0.067066         0.109014
 H         1.316994         2.139983         1.366679
 H         0.760276         3.006516        -0.137745
 H         0.139495         4.143519         2.355750
 H        -1.022923         2.592472         3.882948
 H        -0.107262         0.618690         2.472786
 H        -1.807814         0.439832         2.114668
 H        -2.431841         4.373817         2.236693
 H        -2.598563         1.226580        -0.345235
 H        -1.510788         2.377147        -1.173166
