19
Iteration:  3483
 O        -0.107417         0.257652        -0.035250
 C        -0.684306         1.508631         0.519892
 C         0.256923         2.780915         0.412116
 C        -0.324819         3.586622         1.636185
 C        -0.876510         2.620491         2.627505
 C        -0.886511         1.240183         2.087901
 C        -1.817295         3.487753         1.810574
 O        -2.662090         2.688050         1.036354
 C        -2.096612         1.760817         0.086490
 H        -0.349577        -0.498704         0.554646
 H         1.258347         2.512806         0.656513
 H         0.117771         3.193635        -0.582012
 H         0.132754         4.554493         2.012126
 H        -0.659924         2.840069         3.719077
 H        -0.222705         0.457060         2.541426
 H        -1.954657         0.838015         2.241964
 H        -2.410847         4.233225         2.295551
 H        -2.684936         0.764954         0.065036
 H        -1.992619         2.202084        -0.890276
