19
Iteration:   399
 O        -0.173285         0.255418        -0.101560
 C        -0.702889         1.368374         0.649665
 C         0.395861         2.560342         0.806602
 C        -0.341901         3.399907         1.882697
 C        -1.193590         2.464511         2.704721
 C        -0.990118         1.061776         2.126930
 C        -1.794416         3.467144         1.776408
 O        -2.503902         3.233494         0.562703
 C        -2.050818         1.960663        -0.133613
 H         0.740788         0.050655         0.167142
 H         1.280663         2.122579         1.262878
 H         0.712623         3.159631        -0.099230
 H        -0.068625         4.330039         2.277995
 H        -1.320680         2.515989         3.817598
 H        -0.089421         0.638156         2.600453
 H        -1.696872         0.178630         2.406831
 H        -2.300000         4.341399         2.345215
 H        -2.800753         1.206769         0.032367
 H        -1.725526         2.304587        -1.166066
