19
Iteration:    42charge 0 multiplicity 1
 O        -0.295050         0.306277        -0.192098
 C        -0.619718         1.420082         0.646321
 C         0.376934         2.500522         0.813232
 C        -0.362944         3.357226         1.864783
 C        -1.229580         2.542611         2.754360
 C        -1.008557         1.163323         2.104339
 C        -1.817319         3.536173         1.720564
 O        -2.523581         2.996436         0.658943
 C        -1.862613         1.982834        -0.067867
 H         0.525961        -0.044858         0.184734
 H         1.283042         2.074656         1.420345
 H         0.635861         3.038940        -0.059503
 H         0.186466         4.283352         2.302401
 H        -1.136500         2.728228         3.806539
 H        -0.137911         0.648433         2.664758
 H        -1.777654         0.435681         2.127560
 H        -2.161181         4.439890         2.172342
 H        -2.609248         1.230385        -0.238153
 H        -1.667412         2.347147        -1.092302
