19
Iteration:   441charge 0 multiplicity 1
 O        -0.196246         0.338985        -0.149842
 C        -0.661152         1.422405         0.604604
 C         0.330608         2.727888         0.744610
 C        -0.246760         3.445956         1.924625
 C        -1.246871         2.400256         2.773154
 C        -1.171149         1.006238         2.203216
 C        -1.749294         3.463499         1.796274
 O        -2.363655         3.149943         0.531029
 C        -1.942706         1.781588        -0.070748
 H         0.448979        -0.077882         0.390322
 H         1.398899         2.509976         0.667406
 H        -0.086649         3.177544        -0.104127
 H         0.259691         4.411652         2.226542
 H        -1.272862         2.745662         3.819086
 H        -0.469489         0.239926         2.648985
 H        -2.148944         0.573449         2.146568
 H        -2.342354         4.382373         2.135606
 H        -2.856901         1.219206         0.224576
 H        -1.947252         2.081980        -1.174867
