19
Iteration:  3506charge 0 multiplicity 1
 O        -0.112553         0.302197        -0.008789
 C        -0.658190         1.474517         0.555173
 C         0.232111         2.679406         0.470939
 C        -0.300583         3.562566         1.598265
 C        -0.891063         2.660268         2.719026
 C        -0.770660         1.266326         2.135285
 C        -1.830199         3.425508         1.800930
 O        -2.767366         2.723662         0.974253
 C        -2.097074         1.812540         0.046722
 H        -0.841954        -0.281604        -0.231576
 H         1.284560         2.457205         0.537264
 H        -0.046345         3.045155        -0.486822
 H         0.266726         4.501461         1.686059
 H        -0.778075         2.729657         3.781175
 H         0.233282         0.794311         2.441810
 H        -1.510197         0.445750         2.469649
 H        -2.311000         4.258328         2.199475
 H        -2.725700         0.849746        -0.011836
 H        -1.937205         2.267875        -0.941297
