19
Iteration:  1438
 O        -0.233279         0.295135        -0.094488
 C        -0.652614         1.437274         0.686350
 C         0.405862         2.505034         0.817404
 C        -0.291274         3.489129         1.831376
 C        -1.177108         2.465555         2.703788
 C        -0.959468         1.075555         2.073624
 C        -1.849152         3.499944         1.736716
 O        -2.618161         3.056490         0.614107
 C        -1.943846         1.984233        -0.069305
 H         0.670231         0.180642         0.179617
 H         1.299768         2.023804         1.233962
 H         0.777343         2.994609        -0.060533
 H         0.027296         4.293089         2.380000
 H        -1.270787         2.416034         3.712393
 H        -0.044608         0.676560         2.596264
 H        -1.839995         0.416586         2.171844
 H        -2.380893         4.356460         2.200609
 H        -2.708297         1.236354        -0.287820
 H        -1.537469         2.359987        -1.010687
