19
Iteration:   596charge 0 multiplicity 1
 O        -0.264753         0.241507        -0.195857
 C        -0.691141         1.419763         0.640512
 C         0.351629         2.557520         0.867121
 C        -0.309997         3.502333         1.876831
 C        -1.134052         2.467341         2.791722
 C        -1.025336         1.135109         2.144566
 C        -1.834373         3.495892         1.748957
 O        -2.546970         3.042627         0.596803
 C        -1.865922         1.979090        -0.125086
 H         0.592826        -0.092236         0.204526
 H         1.375864         2.111139         1.234859
 H         0.663369         2.977713        -0.079720
 H         0.164638         4.255102         2.309154
 H        -1.231596         2.672265         3.842375
 H        -0.156628         0.610457         2.553772
 H        -1.964534         0.609290         2.247244
 H        -2.437988         4.231082         2.180292
 H        -2.533553         1.091153        -0.325450
 H        -1.614630         2.364017        -1.129867
