19
Iteration:  2717charge 0 multiplicity 1
 O        -0.079076         0.320290        -0.044061
 C        -0.725820         1.413002         0.637954
 C         0.128549         2.623220         0.591035
 C        -0.362018         3.486109         1.735788
 C        -1.087074         2.441829         2.668903
 C        -0.733350         1.104876         2.197491
 C        -1.828276         3.476724         1.751418
 O        -2.423744         3.121798         0.589162
 C        -2.156142         1.795722         0.232742
 H        -0.609784        -0.005400        -0.787650
 H         1.141677         2.422735         0.643553
 H         0.144321         3.105553        -0.452105
 H         0.323580         4.322661         1.966735
 H        -1.347558         2.576963         3.746241
 H         0.260749         0.797926         2.571981
 H        -1.434256         0.304363         2.491664
 H        -2.288795         4.424119         2.231247
 H        -2.905845         1.215655         0.778822
 H        -2.291785         1.726846        -0.900884
