19
Iteration:   677
 O        -0.133103         0.335843        -0.073710
 C        -0.727798         1.417335         0.620146
 C         0.258101         2.602855         0.730634
 C        -0.275517         3.414465         1.921998
 C        -1.201141         2.418037         2.698185
 C        -1.007823         1.083063         2.082390
 C        -1.799360         3.439009         1.828701
 O        -2.410374         3.225328         0.514632
 C        -2.020925         1.859460        -0.003186
 H         0.556631        -0.068387         0.472239
 H         1.138452         2.065845         1.062526
 H         0.480168         3.148922        -0.235807
 H         0.321319         4.327929         2.169733
 H        -1.543651         2.522853         3.741348
 H        -0.228699         0.520281         2.558700
 H        -1.940706         0.410679         2.098923
 H        -2.394892         4.298500         2.202997
 H        -2.719954         1.058606         0.265046
 H        -1.907889         1.994041        -1.149535
