19
Iteration:   635
 O        -0.222924         0.300588        -0.152074
 C        -0.654012         1.430518         0.645410
 C         0.327417         2.556741         0.758373
 C        -0.314551         3.479308         1.903276
 C        -1.236125         2.466448         2.680643
 C        -1.053196         1.094426         2.105121
 C        -1.757334         3.487322         1.753469
 O        -2.507709         3.129462         0.581795
 C        -1.878068         1.887644         0.012565
 H         0.489318        -0.066589         0.343005
 H         1.271907         2.132353         0.987112
 H         0.381766         3.102451        -0.259828
 H         0.244556         4.392201         2.559449
 H        -1.471759         2.494003         3.763350
 H        -0.236462         0.487721         2.586522
 H        -1.856293         0.316454         2.221063
 H        -2.308160         4.229825         2.401002
 H        -2.699225         1.192215         0.087951
 H        -1.569680         2.075889        -1.087217
