19
Iteration:  2965charge 0 multiplicity 1
 O        -0.156989         0.253643        -0.000476
 C        -0.701856         1.376146         0.666297
 C         0.193297         2.667940         0.519243
 C        -0.347781         3.495818         1.760433
 C        -1.013865         2.432051         2.732827
 C        -0.698110         1.083371         2.195927
 C        -1.917661         3.485644         1.803767
 O        -2.509570         3.189482         0.624630
 C        -2.126569         1.770165         0.063627
 H        -0.261439         0.526835        -0.917846
 H         1.248152         2.306060         0.812254
 H         0.134381         3.096088        -0.427848
 H         0.263340         4.219386         2.205482
 H        -0.990632         2.780225         3.734753
 H         0.299713         0.747586         2.510672
 H        -1.404341         0.323118         2.427170
 H        -2.438094         4.237396         2.339110
 H        -2.966919         1.161720         0.272216
 H        -2.099092         1.838183        -1.048802
