19
Iteration:  1684
 O        -0.198774         0.249632        -0.017863
 C        -0.685038         1.443276         0.616333
 C         0.406556         2.531978         0.792398
 C        -0.296070         3.437557         1.832214
 C        -1.215164         2.457992         2.688028
 C        -1.057047         1.066511         2.012751
 C        -1.764627         3.486835         1.753660
 O        -2.608010         3.041724         0.693777
 C        -1.903414         2.052129        -0.113532
 H         0.500844         0.041070         0.594478
 H         1.404628         2.166440         1.220423
 H         0.735246         3.009970        -0.147244
 H         0.277513         4.225546         2.287568
 H        -1.493652         2.677810         3.681513
 H        -0.118265         0.552035         2.486945
 H        -1.961649         0.486602         2.136900
 H        -2.245997         4.386553         2.147833
 H        -2.650667         1.344155        -0.474003
 H        -1.601765         2.787638        -0.939106
