19
Iteration:  2353charge 0 multiplicity 1
 O        -0.256386         0.264897        -0.082878
 C        -0.613720         1.439396         0.642753
 C         0.464158         2.512865         0.753220
 C        -0.298080         3.449750         1.733132
 C        -1.129833         2.565445         2.708983
 C        -0.993945         1.142651         2.115587
 C        -1.866934         3.471898         1.802327
 O        -2.643937         3.033672         0.675671
 C        -1.979016         1.912298         0.019741
 H         0.371787         0.522436        -0.792158
 H         1.420371         2.076478         1.107173
 H         0.560179         3.008707        -0.271407
 H         0.159043         4.305511         2.205068
 H        -1.034486         2.661163         3.821783
 H        -0.113687         0.714844         2.638740
 H        -1.719453         0.391508         2.294342
 H        -2.155426         4.532578         1.949877
 H        -2.435224         0.911032         0.118275
 H        -1.883140         2.224274        -1.067387
