19
Iteration:   633
 O        -0.238469         0.315747        -0.163878
 C        -0.659218         1.425384         0.654449
 C         0.339241         2.566113         0.762375
 C        -0.327159         3.482227         1.891771
 C        -1.238967         2.451885         2.695099
 C        -1.058581         1.106113         2.130053
 C        -1.748905         3.474046         1.742879
 O        -2.495724         3.117755         0.583241
 C        -1.860528         1.901287         0.014772
 H         0.491068        -0.081953         0.333409
 H         1.296884         2.112909         0.930416
 H         0.285571         3.029083        -0.314404
 H         0.224623         4.357983         2.503783
 H        -1.456892         2.531878         3.786040
 H        -0.277612         0.511075         2.575288
 H        -1.868120         0.269167         2.227837
 H        -2.365574         4.231136         2.362872
 H        -2.663990         1.165467         0.085224
 H        -1.503539         2.119603        -1.111389
