19
Iteration:  4045
 O        -0.050640         0.266266         0.046460
 C        -0.750024         1.418906         0.610405
 C         0.155199         2.702634         0.374699
 C        -0.415658         3.668394         1.478077
 C        -0.856154         2.625965         2.623100
 C        -0.608126         1.138726         2.146427
 C        -1.841086         3.401379         1.914404
 O        -2.769541         2.905246         0.903298
 C        -2.136468         1.756940         0.167828
 H        -0.472869        -0.408725        -0.502864
 H         1.074096         2.260539         0.713849
 H         0.282947         2.978090        -0.643410
 H         0.153556         4.507671         1.929119
 H        -0.639417         3.007655         3.612441
 H         0.489937         0.857067         2.203302
 H        -1.415372         0.435695         2.659436
 H        -2.272764         4.401198         2.385224
 H        -2.705420         0.809647         0.417362
 H        -2.180415         1.911145        -0.945413
