19
Iteration:  1801
 O        -0.242174         0.256953        -0.147758
 C        -0.645176         1.381130         0.661331
 C         0.261127         2.641543         0.756397
 C        -0.298041         3.405144         1.976753
 C        -1.198211         2.442711         2.675225
 C        -1.029462         1.055882         2.131973
 C        -1.831155         3.525236         1.748256
 O        -2.372439         3.191432         0.519581
 C        -1.930237         1.900015         0.025471
 H         0.507874        -0.210264         0.270155
 H         1.286255         2.349630         0.858026
 H         0.283847         3.197404        -0.210359
 H         0.154281         4.347415         2.405320
 H        -1.351507         2.524321         3.756281
 H        -0.389581         0.453439         2.737171
 H        -2.039132         0.603185         1.985093
 H        -2.508918         4.238042         2.279761
 H        -2.713193         1.059359         0.010862
 H        -1.571014         2.107638        -0.959673
