19
Iteration:   195
 O        -0.205644         0.342916        -0.103349
 C        -0.674688         1.413722         0.655577
 C         0.205724         2.704853         0.660389
 C        -0.245183         3.370270         1.958197
 C        -1.209910         2.461442         2.710037
 C        -1.129885         1.084505         2.141346
 C        -1.785982         3.442006         1.822552
 O        -2.301489         3.054855         0.532116
 C        -1.912161         1.897325        -0.043567
 H         0.444325        -0.067408         0.456487
 H         1.264131         2.542943         0.508469
 H        -0.038918         3.261899        -0.171059
 H         0.279571         4.188008         2.327482
 H        -1.633990         2.619060         3.726358
 H        -0.276249         0.555353         2.692750
 H        -2.056938         0.555134         2.216480
 H        -2.340133         4.316359         2.230814
 H        -2.746349         1.153112         0.269594
 H        -1.978246         2.081495        -1.184075
