19
Iteration:  2003
 O        -0.410847         0.168468        -0.129784
 C        -0.651777         1.386335         0.661983
 C         0.421515         2.642263         0.806073
 C        -0.365720         3.485663         1.900583
 C        -1.231437         2.465514         2.725555
 C        -0.935069         1.064188         2.129998
 C        -1.894226         3.456725         1.740907
 O        -2.441283         3.114223         0.558901
 C        -1.826741         2.013140        -0.048034
 H         0.549538         0.111627        -0.083162
 H         1.284417         2.456941         1.332070
 H         0.547140         3.152844        -0.158914
 H         0.209257         4.425362         2.229363
 H        -1.415280         2.459594         3.829123
 H        -0.086781         0.527592         2.619301
 H        -1.716051         0.359576         2.274645
 H        -2.270553         4.385409         2.075111
 H        -2.556849         1.195326        -0.197472
 H        -1.352376         2.293625        -1.001663
