19
Iteration:  1946
 O        -0.008979         0.268431        -0.106022
 C        -0.631414         1.388670         0.650608
 C         0.370910         2.418749         0.785641
 C        -0.296768         3.473671         1.716800
 C        -1.208099         2.496917         2.680800
 C        -1.231206         1.103245         2.046926
 C        -1.819107         3.574263         1.816817
 O        -2.610263         3.045036         0.772552
 C        -1.912510         2.039229        -0.110300
 H         0.586586         0.014301         0.640944
 H         1.189231         2.228450         1.306721
 H         0.753886         2.729850        -0.189632
 H         0.485097         3.921956         2.254306
 H        -1.145292         2.495293         3.744349
 H        -0.590281         0.385937         2.598019
 H        -2.243362         0.810019         1.937185
 H        -2.248519         4.566723         2.151615
 H        -2.734852         1.324003        -0.423522
 H        -1.640415         2.630258        -0.940532
