19
Iteration:  1857
 O        -0.168074         0.288900        -0.106472
 C        -0.707209         1.408143         0.663913
 C         0.342666         2.564386         0.821534
 C        -0.268492         3.440753         1.828487
 C        -1.171716         2.397731         2.710231
 C        -1.027104         0.989445         2.162484
 C        -1.846056         3.499280         1.725003
 O        -2.502104         3.268155         0.567319
 C        -1.967942         1.932589        -0.080225
 H         0.547798        -0.114780         0.450672
 H         1.245118         2.172884         1.272444
 H         0.536760         2.990969        -0.194103
 H         0.214310         4.343225         2.230900
 H        -1.344947         2.482532         3.811288
 H        -0.164550         0.533433         2.673466
 H        -1.847631         0.262077         2.211487
 H        -2.526123         4.396924         2.193369
 H        -2.713552         1.060528        -0.141459
 H        -1.707770         2.239427        -1.072862
