19
Iteration:   665charge 0 multiplicity 1
 O        -0.097625         0.263846        -0.074499
 C        -0.693441         1.456808         0.555744
 C         0.389218         2.562075         0.773022
 C        -0.350785         3.421425         1.877912
 C        -1.202318         2.437156         2.775970
 C        -1.052180         1.092803         2.066418
 C        -1.798924         3.447027         1.755479
 O        -2.401393         3.173903         0.539806
 C        -2.143099         1.927026        -0.037967
 H         0.602448         0.061520         0.616983
 H         1.400520         2.244527         1.089887
 H         0.608276         3.262921        -0.099931
 H        -0.059496         4.219276         2.557405
 H        -1.056362         2.497967         3.887918
 H        -0.107241         0.694099         2.385712
 H        -1.935301         0.356709         2.281788
 H        -2.222930         4.313901         2.370410
 H        -2.987270         1.280014         0.253779
 H        -2.269238         1.995543        -1.206818
