19
Iteration:   582
 O        -0.209318         0.260989        -0.069176
 C        -0.653014         1.437963         0.611222
 C         0.432977         2.532277         0.841713
 C        -0.306207         3.456091         1.811850
 C        -1.225483         2.521895         2.639943
 C        -1.073840         1.087812         2.045272
 C        -1.800765         3.447474         1.780422
 O        -2.547216         3.024605         0.712536
 C        -1.946490         2.048920        -0.104292
 H         0.641596         0.049098         0.273601
 H         1.356718         2.133952         1.419869
 H         0.607679         2.994124        -0.130373
 H         0.295753         4.440821         2.154491
 H        -1.478517         2.492957         3.724666
 H        -0.167992         0.528962         2.494591
 H        -1.907121         0.414675         2.070090
 H        -2.256122         4.388702         2.212986
 H        -2.714475         1.263993        -0.195815
 H        -1.637597         2.392859        -1.039676
