19
Iteration:  3243charge 0 multiplicity 1
 O        -0.051546         0.308256        -0.105241
 C        -0.689917         1.471309         0.621212
 C         0.229415         2.647016         0.547112
 C        -0.223906         3.553951         1.670033
 C        -0.886978         2.635720         2.667090
 C        -1.045389         1.227540         2.071456
 C        -1.787447         3.507043         1.809658
 O        -2.677577         2.723036         0.940433
 C        -2.031296         1.840546         0.038027
 H        -0.502193        -0.537589         0.164176
 H         1.321267         2.571470         0.960331
 H         0.179548         3.168009        -0.434142
 H         0.253702         4.458220         1.768798
 H        -0.982474         2.532132         3.746658
 H        -0.463898         0.547275         2.655918
 H        -2.152370         1.001163         2.077103
 H        -2.403685         4.020970         2.503151
 H        -2.699340         0.959181        -0.066992
 H        -1.881853         2.237048        -1.033994
