19
Iteration:  4751charge 0 multiplicity 1
 O        -0.001448         0.418015        -0.151385
 C        -0.743986         1.363995         0.688503
 C         0.178213         2.593251         0.509296
 C        -0.292806         3.425950         1.643313
 C        -1.097885         2.614499         2.664948
 C        -0.698086         1.154313         2.205859
 C        -1.754609         3.502944         1.766620
 O        -2.607016         3.018326         0.752003
 C        -2.259004         1.745577         0.190162
 H        -0.104035        -0.453590         0.259474
 H         1.187208         2.289844         0.626508
 H         0.106210         2.940488        -0.476836
 H         0.186551         4.417414         1.806413
 H        -0.981199         2.774419         3.686508
 H         0.314879         1.011159         2.501358
 H        -1.460971         0.356113         2.727443
 H        -2.269014         4.201458         2.379504
 H        -2.962104         0.999190         0.586461
 H        -2.491849         1.742552        -0.941206
