19
Iteration:  2386charge 0 multiplicity 1
 O        -0.161735         0.255252        -0.124391
 C        -0.706561         1.408232         0.579693
 C         0.312107         2.560770         0.713747
 C        -0.260151         3.530687         1.792936
 C        -1.007883         2.591491         2.725982
 C        -1.094224         1.163788         2.138575
 C        -1.759956         3.451241         1.780897
 O        -2.597575         2.902245         0.779993
 C        -1.981375         1.940666        -0.087284
 H         0.415581        -0.135067         0.571428
 H         1.316123         2.238590         0.992736
 H         0.354182         3.041689        -0.306572
 H         0.233367         4.477296         2.090944
 H        -1.207639         2.723715         3.841185
 H        -0.345640         0.509919         2.583706
 H        -2.083067         0.793065         2.154527
 H        -2.211480         4.445346         2.031739
 H        -2.746268         1.199660        -0.319222
 H        -1.832226         2.475552        -1.069788
