19
Iteration:  2441charge 0 multiplicity 1
 O        -0.176260         0.162826        -0.039788
 C        -0.637138         1.434913         0.543655
 C         0.477782         2.600957         0.784782
 C        -0.323210         3.538784         1.725062
 C        -1.080594         2.520971         2.681205
 C        -0.919452         1.177684         2.092368
 C        -1.842933         3.515520         1.777328
 O        -2.681790         3.054891         0.716820
 C        -2.044647         1.807546         0.016372
 H        -0.712525         0.098584        -0.869255
 H         1.395702         2.278447         1.245304
 H         0.926557         3.128095        -0.115312
 H         0.148672         4.487335         2.194033
 H        -1.100304         2.706170         3.830444
 H        -0.068016         0.656031         2.557395
 H        -1.696383         0.455784         2.204632
 H        -2.276775         4.387353         2.334258
 H        -2.671489         0.944983         0.155574
 H        -2.008671         2.272853        -1.023267
