19
Iteration:  3803
 O        -0.184025         0.318051        -0.123119
 C        -0.698724         1.379892         0.623360
 C         0.134442         2.727671         0.415497
 C        -0.322196         3.616578         1.607986
 C        -0.895446         2.673959         2.632407
 C        -0.536211         1.236239         2.154403
 C        -1.870400         3.437795         1.790505
 O        -2.722856         2.844171         0.864777
 C        -2.157708         1.654264         0.299877
 H         0.199208        -0.439071         0.352145
 H         1.265403         2.527022         0.511145
 H        -0.220485         3.088761        -0.549794
 H         0.046663         4.611267         1.771149
 H        -0.781248         2.818997         3.732521
 H         0.384379         0.919920         2.517550
 H        -1.262154         0.426299         2.470823
 H        -2.440201         4.175256         2.201486
 H        -2.771284         0.777338         0.451828
 H        -1.993761         1.841354        -0.818179
