19
Iteration:  4773charge 0 multiplicity 1
 O        -0.088855         0.314882        -0.072436
 C        -0.711586         1.410652         0.639666
 C         0.083192         2.722146         0.492815
 C        -0.344539         3.576162         1.684096
 C        -0.851220         2.596996         2.699606
 C        -0.790447         1.177682         2.154406
 C        -1.820244         3.469948         1.838158
 O        -2.548064         2.999035         0.668882
 C        -2.105192         1.608104         0.221282
 H        -0.857995        -0.213735        -0.390743
 H         1.085834         2.394726         0.646937
 H         0.066863         3.134513        -0.469665
 H         0.204567         4.445947         2.086930
 H        -0.919118         2.560116         3.729389
 H         0.004617         0.592311         2.564703
 H        -1.840237         0.628849         2.403781
 H        -2.344229         4.302414         2.230599
 H        -2.795861         0.903921         0.611946
 H        -2.153888         1.552854        -0.922821
