19
Iteration:   219
 O        -0.084085         0.285849        -0.083565
 C        -0.720690         1.402679         0.622404
 C         0.281091         2.602358         0.722002
 C        -0.321004         3.398471         1.894545
 C        -1.226210         2.421944         2.707971
 C        -1.024424         1.072735         2.067087
 C        -1.746272         3.547977         1.834052
 O        -2.456676         3.164739         0.535184
 C        -2.048905         1.888540        -0.027115
 H         0.609200         0.123870         0.558171
 H         1.338764         2.251979         0.923360
 H         0.368197         3.128814        -0.157943
 H         0.312953         3.989767         2.535036
 H        -1.278041         2.538250         3.840925
 H        -0.217232         0.471614         2.661087
 H        -1.952957         0.597539         2.120396
 H        -2.271393         4.489649         2.230826
 H        -2.924816         1.198592         0.182357
 H        -1.886259         2.047192        -1.187640
