19
Iteration:  4578
 O        -0.219271         0.172229        -0.028756
 C        -0.652325         1.372916         0.603544
 C         0.294950         2.645571         0.494421
 C        -0.353440         3.605957         1.636694
 C        -1.003067         2.511175         2.667233
 C        -0.687303         1.154073         2.154083
 C        -1.855740         3.488587         1.824029
 O        -2.730135         2.990228         0.831399
 C        -2.083973         1.882419         0.026501
 H         0.549876        -0.148162         0.465648
 H         1.356614         2.352441         0.836630
 H         0.291269         3.078634        -0.527235
 H         0.149467         4.570266         1.969415
 H        -1.164548         2.745594         3.721688
 H         0.353588         0.794883         2.483899
 H        -1.345031         0.418265         2.581924
 H        -2.354427         4.405491         2.377144
 H        -2.880703         1.070348         0.099218
 H        -1.918269         2.238565        -0.935176
