19
Iteration:   238charge 0 multiplicity 1
 O        -0.174114         0.292962        -0.126375
 C        -0.663105         1.395243         0.657481
 C         0.328345         2.534657         0.847834
 C        -0.270505         3.467680         1.870110
 C        -1.141109         2.473831         2.640955
 C        -1.012829         1.007994         2.123435
 C        -1.871761         3.471680         1.736263
 O        -2.514997         3.216757         0.571742
 C        -2.009268         1.928397        -0.036648
 H         0.655533        -0.038750         0.172830
 H         1.236861         2.145363         1.261113
 H         0.725976         3.012883        -0.037993
 H         0.198158         4.291173         2.242919
 H        -1.272501         2.670990         3.743589
 H        -0.124137         0.588500         2.537625
 H        -1.837239         0.336481         2.335106
 H        -2.542222         4.195551         2.282143
 H        -2.776000         1.135045         0.111573
 H        -1.791448         2.219452        -1.063342
