19
Iteration:  3012charge 0 multiplicity 1
 O        -0.142083         0.251013         0.009598
 C        -0.678791         1.452403         0.494262
 C         0.365266         2.674385         0.602148
 C        -0.220015         3.499082         1.628775
 C        -0.971849         2.576399         2.719953
 C        -1.039480         1.229021         2.126576
 C        -1.786040         3.531182         1.877182
 O        -2.704442         2.716842         0.895119
 C        -2.058026         1.898514        -0.021752
 H         0.018005         0.271016        -0.952498
 H         1.335788         2.351700         0.973170
 H         0.437124         3.169486        -0.356061
 H         0.387638         4.416658         2.002547
 H        -0.828533         2.895243         3.784642
 H        -0.491856         0.482945         2.704265
 H        -2.112492         0.858894         2.070354
 H        -2.217685         4.482071         2.262068
 H        -2.559113         0.940326        -0.259467
 H        -1.991693         2.360335        -1.022064
