19
Iteration:  2844charge 0 multiplicity 1
 O        -0.312786         0.143772         0.027262
 C        -0.620722         1.428955         0.620089
 C         0.382205         2.766274         0.542140
 C        -0.266402         3.552654         1.662398
 C        -0.971324         2.614045         2.749526
 C        -0.934038         1.184481         2.074428
 C        -1.834893         3.414056         1.803298
 O        -2.681476         2.768606         0.881242
 C        -1.947265         1.935184        -0.018524
 H        -0.104754         0.225550        -0.919566
 H         1.478760         2.563931         0.927408
 H         0.331814         3.269749        -0.378098
 H         0.077067         4.583514         1.925723
 H        -1.067244         2.632015         3.860438
 H        -0.146985         0.547900         2.534474
 H        -1.924421         0.740442         2.088724
 H        -2.203266         4.491418         2.139683
 H        -2.594366         1.016038        -0.173960
 H        -1.865793         2.625654        -0.931984
