19
Iteration:    68
 O        -0.145247         0.244673         0.010255
 C        -0.692684         1.392756         0.604557
 C         0.372060         2.600731         0.740400
 C        -0.164852         3.420110         1.879656
 C        -1.184851         2.455495         2.640561
 C        -1.079760         1.105550         2.049175
 C        -1.769896         3.469624         1.761823
 O        -2.629115         3.047397         0.692009
 C        -1.997127         2.029347        -0.135828
 H         0.664783         0.194421         0.560741
 H         1.267098         2.139210         1.116946
 H         0.626073         3.223272        -0.165018
 H         0.348554         4.202774         2.262776
 H        -1.503791         2.482048         3.712582
 H        -0.413706         0.502430         2.615564
 H        -2.077591         0.598340         2.025711
 H        -2.066580         4.349070         2.374322
 H        -2.835829         1.420641        -0.450990
 H        -1.649955         2.586043        -0.980978
