19
Iteration:  4168charge 0 multiplicity 1
 O        -0.218008         0.228275        -0.005785
 C        -0.660474         1.398659         0.611311
 C         0.060814         2.761101         0.369735
 C        -0.383999         3.556532         1.558797
 C        -0.842724         2.680949         2.729174
 C        -0.655180         1.232303         2.264484
 C        -1.814004         3.486799         1.827982
 O        -2.609983         2.821064         0.858393
 C        -2.077987         1.646867         0.161972
 H        -0.167138         0.437178        -0.953706
 H         1.129154         2.879550         0.267701
 H        -0.305843         3.170710        -0.499873
 H         0.224760         4.421693         1.780326
 H        -0.786065         3.051125         3.751457
 H         0.209833         0.657868         2.540520
 H        -1.645652         0.567132         2.331494
 H        -2.367726         4.199918         2.289941
 H        -2.758343         0.821244         0.308376
 H        -2.033269         1.893929        -0.929775
