19
Iteration:  1827
 O        -0.096958         0.383141        -0.157037
 C        -0.736585         1.427442         0.589410
 C         0.275864         2.669707         0.719903
 C        -0.226621         3.334016         1.944631
 C        -1.257808         2.484532         2.778915
 C        -1.211153         1.090137         2.133873
 C        -1.758592         3.546224         1.745689
 O        -2.303271         3.094510         0.591172
 C        -2.046622         1.769920        -0.034140
 H         0.403961        -0.166839         0.458779
 H         1.347840         2.133365         0.862620
 H         0.438129         3.238670        -0.242253
 H         0.317964         4.155040         2.397315
 H        -1.277629         2.548337         3.886253
 H        -0.445470         0.555719         2.766212
 H        -2.121151         0.601544         2.012872
 H        -2.221778         4.552789         2.115650
 H        -2.768940         0.945872         0.170987
 H        -1.957013         1.994830        -1.127534
