19
Iteration:   384
 O        -0.311501         0.294613        -0.144007
 C        -0.660715         1.424967         0.664068
 C         0.401952         2.583655         0.894462
 C        -0.333431         3.473561         1.817689
 C        -1.199853         2.434748         2.721968
 C        -0.955551         1.032678         2.144734
 C        -1.842234         3.429603         1.700982
 O        -2.506279         3.112442         0.559033
 C        -1.944780         2.002168        -0.019411
 H         0.649717         0.103928         0.080606
 H         1.377632         2.223329         1.357856
 H         0.713888         2.996253        -0.022080
 H         0.393959         4.295583         2.316039
 H        -1.359739         2.601516         3.752753
 H        -0.069134         0.497802         2.618298
 H        -1.852721         0.548507         2.197841
 H        -2.227783         4.288934         2.127146
 H        -2.746988         1.220652        -0.285563
 H        -1.622011         2.195585        -1.089325
