19
Iteration:   330charge 0 multiplicity 1
 O        -0.124982         0.303783        -0.039076
 C        -0.676032         1.428993         0.603651
 C         0.348212         2.522015         0.765747
 C        -0.265877         3.440353         1.853499
 C        -1.080755         2.462972         2.709057
 C        -1.194418         1.103465         2.037036
 C        -1.798893         3.524414         1.753891
 O        -2.611947         2.982869         0.722842
 C        -1.935864         2.061785        -0.157822
 H         0.605086        -0.126422         0.493381
 H         1.301616         2.082178         1.138736
 H         0.633016         2.879750        -0.156746
 H         0.428858         4.353028         2.203447
 H        -1.285704         2.497095         3.763145
 H        -0.495995         0.400132         2.580556
 H        -2.132005         0.647026         2.163334
 H        -2.164270         4.352251         2.259995
 H        -2.681352         1.263033        -0.362894
 H        -1.413431         2.597453        -1.012172
