19
Iteration:  2230charge 0 multiplicity 1
 O        -0.337570         0.229604        -0.141418
 C        -0.615091         1.348068         0.712880
 C         0.345153         2.625063         0.772785
 C        -0.347842         3.446119         1.846251
 C        -1.126243         2.542939         2.751312
 C        -0.903992         1.102238         2.214963
 C        -1.867583         3.483186         1.754321
 O        -2.475614         3.067196         0.542716
 C        -1.911929         1.920776        -0.020779
 H        -0.158881         0.543619        -1.037582
 H         1.416907         2.284402         0.944000
 H         0.281076         3.074800        -0.228834
 H         0.255874         4.358379         2.226706
 H        -1.334631         2.614124         3.843261
 H        -0.248471         0.541305         2.904746
 H        -1.858845         0.518496         2.360491
 H        -2.274788         4.454012         2.134214
 H        -2.720571         1.144141        -0.075926
 H        -1.449868         2.152145        -1.077473
