19
Iteration:  3501
 O        -0.115396         0.301482         0.007843
 C        -0.624141         1.437153         0.556531
 C         0.215139         2.739697         0.499259
 C        -0.280981         3.580880         1.583881
 C        -0.874133         2.666869         2.708949
 C        -0.820468         1.244836         2.090414
 C        -1.797400         3.435967         1.813215
 O        -2.786045         2.686325         0.982285
 C        -2.084105         1.816277         0.046002
 H        -0.870082        -0.342800        -0.023988
 H         1.288844         2.415655         0.539484
 H        -0.065930         3.199788        -0.515733
 H         0.346006         4.482793         1.673967
 H        -0.819595         2.620769         3.866551
 H         0.098100         0.807558         2.368999
 H        -1.543638         0.516974         2.319744
 H        -2.234991         4.426187         2.200574
 H        -2.667797         0.941023        -0.003281
 H        -2.145869         2.120762        -1.039224
