19
Iteration:  3704charge 0 multiplicity 1
 O         0.002885         0.317217        -0.016719
 C        -0.758091         1.370992         0.673283
 C         0.090193         2.649027         0.424594
 C        -0.335411         3.613984         1.574055
 C        -0.858961         2.669763         2.620505
 C        -0.664658         1.215875         2.204307
 C        -1.841040         3.429245         1.861192
 O        -2.785672         2.770498         0.973094
 C        -2.130890         1.830806         0.032160
 H        -0.601273        -0.313848        -0.499552
 H         1.220732         2.389571         0.375581
 H         0.031378         3.191226        -0.541501
 H         0.305771         4.498554         1.538582
 H        -0.503595         2.869750         3.643565
 H         0.270042         0.768470         2.523332
 H        -1.392699         0.403322         2.619814
 H        -2.363681         4.276847         2.394618
 H        -2.954644         1.059113        -0.195655
 H        -1.736723         2.151787        -1.030336
