19
Iteration:  2973
 O        -0.178369         0.271602         0.024020
 C        -0.675866         1.401976         0.680333
 C         0.139757         2.677026         0.517510
 C        -0.356897         3.495882         1.730276
 C        -1.039366         2.535232         2.699447
 C        -0.760637         1.048012         2.155976
 C        -1.797725         3.470304         1.888078
 O        -2.516300         3.084841         0.647154
 C        -2.076434         1.792022         0.030998
 H        -0.242099         0.309997        -0.938581
 H         1.215950         2.535035         0.696166
 H         0.100119         3.226000        -0.488714
 H         0.358209         4.186076         2.162386
 H        -1.048739         2.688697         3.781474
 H         0.160486         0.587208         2.564838
 H        -1.586361         0.372092         2.384910
 H        -2.415686         4.331002         2.368350
 H        -2.921486         1.067556         0.164463
 H        -1.929848         2.006219        -1.063793
