19
Iteration:   789
 O        -0.224519         0.295805        -0.170356
 C        -0.669591         1.360778         0.636375
 C         0.296532         2.705995         0.800660
 C        -0.304123         3.468424         1.862764
 C        -1.189435         2.508261         2.793379
 C        -1.158020         1.114038         2.120434
 C        -1.749628         3.555794         1.805656
 O        -2.486275         2.916446         0.640863
 C        -1.843181         1.898688        -0.152852
 H         0.626370        -0.042332         0.275245
 H         1.266472         2.267548         0.975524
 H         0.406528         3.203837        -0.208156
 H         0.412524         4.123193         2.453043
 H        -1.167409         2.706112         3.871841
 H        -0.483452         0.412106         2.601682
 H        -2.123112         0.591967         2.031609
 H        -2.259873         4.356660         2.306368
 H        -2.629297         1.150391        -0.379431
 H        -1.503119         2.546980        -1.062800
