19
Iteration:  1355charge 0 multiplicity 1
 O        -0.087830         0.290183        -0.005440
 C        -0.754946         1.401454         0.553854
 C         0.265229         2.615825         0.706980
 C        -0.251355         3.371025         1.890442
 C        -1.171985         2.494426         2.711254
 C        -1.013619         1.085380         2.107464
 C        -1.868201         3.374841         1.844189
 O        -2.415636         3.205854         0.563702
 C        -2.030708         1.948865        -0.105730
 H         0.592475        -0.064563         0.632297
 H         1.315986         2.205128         0.781522
 H         0.037193         3.271014        -0.169270
 H         0.144076         4.280034         2.287024
 H        -1.531045         2.529089         3.818755
 H        -0.074551         0.589692         2.354313
 H        -1.702982         0.219748         2.410905
 H        -2.268432         4.274728         2.364800
 H        -2.870910         1.299846         0.063645
 H        -1.906991         2.022182        -1.189737
