19
Iteration:  4481
 O        -0.250150         0.190674         0.082987
 C        -0.702124         1.493500         0.603590
 C         0.276078         2.643352         0.560664
 C        -0.358863         3.574585         1.676307
 C        -0.876012         2.549701         2.654459
 C        -0.638558         1.223502         2.040027
 C        -1.876656         3.366210         1.782606
 O        -2.647908         2.995262         0.704791
 C        -2.174713         1.824399         0.166850
 H         0.531296         0.245243        -0.494850
 H         1.162428         2.272230         0.931008
 H         0.375672         3.097742        -0.435135
 H        -0.049661         4.603347         1.974859
 H        -1.067168         2.529222         3.760734
 H         0.314790         0.647499         2.319224
 H        -1.421035         0.593517         2.326776
 H        -2.444663         4.157519         2.398788
 H        -2.740446         0.962449         0.559422
 H        -2.319872         1.871451        -0.961159
