19
Iteration:  1383charge 0 multiplicity 1
 O        -0.204682         0.300598        -0.145104
 C        -0.596914         1.410994         0.634129
 C         0.289334         2.693185         0.764911
 C        -0.313873         3.393410         1.868322
 C        -1.183333         2.485018         2.691401
 C        -1.094184         1.060307         2.082865
 C        -1.822835         3.541181         1.757477
 O        -2.406897         3.102461         0.583518
 C        -1.946829         1.855641         0.035592
 H         0.419385        -0.225712         0.365370
 H         1.308485         2.468339         1.031201
 H         0.106120         3.371644        -0.052517
 H         0.245831         4.152548         2.435653
 H        -1.232135         2.615312         3.695588
 H        -0.337912         0.410554         2.640364
 H        -1.981772         0.331592         2.064571
 H        -2.374071         4.240045         2.340774
 H        -2.722891         1.090143         0.327407
 H        -1.850319         1.885686        -1.096087
