19
Iteration:   897charge 0 multiplicity 1
 O        -0.167891         0.231927        -0.113827
 C        -0.652766         1.425139         0.656075
 C         0.375510         2.701591         0.791103
 C        -0.274726         3.486017         1.899972
 C        -1.169845         2.496085         2.691841
 C        -1.118905         1.134748         2.012275
 C        -1.789430         3.464885         1.806417
 O        -2.517892         3.061714         0.632073
 C        -1.940905         1.850327        -0.059361
 H         0.684710        -0.017312         0.319493
 H         1.288468         2.165835         1.073069
 H         0.316943         3.149506        -0.235148
 H         0.199961         4.296472         2.486406
 H        -1.414514         2.435448         3.797155
 H        -0.418442         0.443884         2.495672
 H        -2.148001         0.645100         1.814573
 H        -2.338416         4.276321         2.307351
 H        -2.667144         1.071141        -0.083524
 H        -1.907593         2.191904        -1.056493
