19
Iteration:  2502charge 0 multiplicity 1
 O        -0.110808         0.276631        -0.095510
 C        -0.702099         1.403132         0.593145
 C         0.086282         2.636204         0.574562
 C        -0.322533         3.411170         1.807133
 C        -1.033875         2.513177         2.711189
 C        -0.928849         1.139445         2.182134
 C        -1.853623         3.505477         1.843793
 O        -2.400385         3.141015         0.567334
 C        -2.035771         1.790931         0.100754
 H         0.285973        -0.310302         0.598962
 H         1.183854         2.433421         0.401993
 H        -0.338690         3.183241        -0.241145
 H         0.362953         4.185498         2.119305
 H        -0.999615         2.700441         3.818027
 H         0.090368         0.826651         2.516946
 H        -1.759270         0.442341         2.512100
 H        -2.551202         4.262346         2.362367
 H        -2.876513         1.053399         0.356856
 H        -1.958821         1.810589        -0.961427
