19
Iteration:  2479
 O        -0.215880         0.360952        -0.162196
 C        -0.680452         1.350439         0.752026
 C         0.220001         2.654755         0.635479
 C        -0.285377         3.503959         1.762494
 C        -1.130962         2.523781         2.726693
 C        -0.889507         1.047676         2.288879
 C        -1.712344         3.457209         1.703450
 O        -2.511502         3.109762         0.612264
 C        -2.087685         1.743668         0.062437
 H         0.739631         0.388702        -0.325266
 H         1.266670         2.274828         0.746702
 H         0.052712         3.024762        -0.371149
 H         0.233083         4.315572         2.150991
 H        -1.342083         2.775819         3.727466
 H         0.043554         0.646846         2.702591
 H        -1.805718         0.433013         2.528145
 H        -2.158471         4.389507         2.087358
 H        -3.032981         1.088527         0.110114
 H        -1.796625         1.814357        -0.942647
