19
Iteration:   221charge 0 multiplicity 1
 O        -0.087144         0.283975        -0.086722
 C        -0.721305         1.387852         0.620240
 C         0.295410         2.602043         0.737567
 C        -0.338912         3.406976         1.893437
 C        -1.203901         2.418618         2.694215
 C        -1.008060         1.066145         2.086182
 C        -1.758514         3.565865         1.834454
 O        -2.469933         3.154406         0.525525
 C        -2.050621         1.912524        -0.031634
 H         0.594022         0.153287         0.552942
 H         1.362605         2.196964         1.020534
 H         0.377032         3.125554        -0.260137
 H         0.404599         3.957648         2.597002
 H        -1.301991         2.526043         3.778768
 H        -0.204356         0.456433         2.668848
 H        -2.006898         0.586709         2.132001
 H        -2.262171         4.452276         2.264013
 H        -2.899737         1.246602         0.161705
 H        -1.950142         2.027814        -1.166730
