19
Iteration:  1007
 O        -0.103595         0.408302        -0.072940
 C        -0.753854         1.353518         0.668327
 C         0.228748         2.591965         0.772683
 C        -0.303832         3.414542         1.821802
 C        -1.127258         2.452496         2.734928
 C        -1.037360         1.061498         2.151937
 C        -1.803357         3.471688         1.753805
 O        -2.508087         3.078353         0.580994
 C        -1.958562         1.947721        -0.107681
 H         0.674798         0.132410         0.417164
 H         1.251921         2.194166         1.016828
 H         0.243875         2.998695        -0.281697
 H         0.177847         4.147881         2.343348
 H        -0.921147         2.321731         3.870706
 H        -0.229256         0.505022         2.676860
 H        -2.079947         0.535221         2.311032
 H        -2.308451         4.440007         2.241003
 H        -2.673730         1.148817        -0.406249
 H        -1.518746         2.332664        -1.078604
