19
Iteration:  3961
 O        -0.024394         0.297607        -0.093157
 C        -0.715008         1.323611         0.685429
 C         0.165704         2.668561         0.416800
 C        -0.378453         3.558087         1.474936
 C        -0.828411         2.630996         2.629375
 C        -0.688685         1.200543         2.162727
 C        -1.818838         3.495449         1.857375
 O        -2.809822         2.829306         0.955037
 C        -2.203411         1.828783         0.104066
 H         0.156419        -0.383346         0.603958
 H         1.328289         2.690414         0.679627
 H         0.088934         2.973756        -0.645617
 H         0.097057         4.489324         1.679054
 H        -0.521422         2.963676         3.653024
 H         0.355708         0.973682         2.565569
 H        -1.305784         0.422492         2.621151
 H        -2.349236         4.288158         2.599495
 H        -2.865648         0.946345         0.225928
 H        -2.271052         2.185825        -0.946107
