19
Iteration:   959charge 0 multiplicity 1
 O        -0.304973         0.260838        -0.185110
 C        -0.619596         1.468069         0.669065
 C         0.372322         2.654532         0.855712
 C        -0.368517         3.431103         1.888878
 C        -1.136550         2.515142         2.668334
 C        -0.986431         1.044428         2.095173
 C        -1.881236         3.522761         1.722063
 O        -2.501251         3.043873         0.604769
 C        -1.897573         1.912733        -0.014005
 H         0.533323        -0.159103         0.101799
 H         1.290561         2.306840         1.366795
 H         0.686653         3.218173        -0.038282
 H         0.142849         4.228472         2.572155
 H        -1.240538         2.737755         3.721196
 H        -0.117954         0.555317         2.557732
 H        -1.880397         0.393199         2.134039
 H        -2.402431         4.287736         2.133621
 H        -2.595739         0.993095         0.024160
 H        -1.545886         2.040554        -1.125216
