19
Iteration:  4840
 O        -0.190623         0.286596        -0.087717
 C        -0.686525         1.402652         0.660103
 C         0.334372         2.585377         0.522718
 C        -0.318756         3.566796         1.540423
 C        -0.889409         2.628268         2.630138
 C        -0.739893         1.215323         2.200285
 C        -1.879934         3.422187         1.843700
 O        -2.772937         2.877550         0.885909
 C        -2.167155         1.821968         0.076521
 H         0.757618         0.466402        -0.033260
 H         1.256114         2.181959         0.989623
 H         0.672983         2.789327        -0.451046
 H         0.045513         4.562478         1.818315
 H        -0.844212         2.925121         3.684585
 H         0.154235         0.638494         2.474496
 H        -1.655051         0.579998         2.693285
 H        -2.196764         4.427762         2.127536
 H        -2.803733         0.950000         0.049410
 H        -2.047905         2.193976        -1.012101
