19
Iteration:  2928charge 0 multiplicity 1
 O        -0.269435         0.332438        -0.177713
 C        -0.696728         1.414312         0.653853
 C         0.286216         2.720627         0.638154
 C        -0.337137         3.504736         1.817906
 C        -1.174919         2.469768         2.629575
 C        -0.756588         1.099093         2.186896
 C        -1.805388         3.549463         1.692136
 O        -2.379238         3.079995         0.528198
 C        -2.158167         1.635668         0.400952
 H         0.149160         0.628577        -1.004725
 H         1.244183         2.285668         0.712312
 H         0.357782         3.231214        -0.424122
 H         0.193941         4.346884         2.381207
 H        -1.179641         2.511905         3.741910
 H         0.222906         0.784251         2.578034
 H        -1.413037         0.190557         2.250964
 H        -2.535540         4.279106         2.241888
 H        -2.715783         0.954960         1.098390
 H        -2.463344         1.527186        -0.629614
