19
Iteration:  3647
 O        -0.325164         0.273951        -0.143721
 C        -0.652197         1.418871         0.591057
 C         0.282258         2.787108         0.510663
 C        -0.311826         3.639210         1.704843
 C        -0.953226         2.632507         2.652962
 C        -0.649142         1.217428         2.163529
 C        -1.806774         3.443440         1.696788
 O        -2.696685         2.801680         0.886181
 C        -2.154429         1.637322         0.203635
 H         0.613734         0.062837        -0.100858
 H         1.380231         2.584670         0.738276
 H         0.159806         3.408808        -0.420855
 H         0.273603         4.499122         2.021903
 H        -0.925866         2.882428         3.669597
 H         0.311767         0.955842         2.450894
 H        -1.435606         0.491352         2.369099
 H        -2.397442         4.284731         2.199956
 H        -2.649940         0.792495         0.666067
 H        -2.281262         1.569665        -0.959454
