19
Iteration:  1835
 O        -0.079686         0.407164        -0.124137
 C        -0.728879         1.430517         0.593238
 C         0.258070         2.558032         0.713389
 C        -0.232709         3.329662         1.950317
 C        -1.235937         2.472079         2.713660
 C        -1.146956         1.124974         2.128697
 C        -1.714000         3.534768         1.796491
 O        -2.362545         3.099422         0.551412
 C        -2.053768         1.821988        -0.016783
 H         0.431348        -0.135677         0.471181
 H         1.192672         2.063806         1.024212
 H         0.373835         3.313341        -0.106378
 H         0.170728         4.217827         2.466114
 H        -1.273281         2.687106         3.802337
 H        -0.465033         0.407349         2.600309
 H        -2.099469         0.588628         2.172579
 H        -2.414771         4.477091         2.002515
 H        -2.933856         1.067576         0.035450
 H        -1.878602         2.008307        -1.067190
