19
Iteration:  4884charge 0 multiplicity 1
 O        -0.256370         0.241428        -0.149891
 C        -0.664857         1.385987         0.607676
 C         0.238615         2.761193         0.406190
 C        -0.236417         3.576010         1.666272
 C        -0.988313         2.672393         2.765965
 C        -0.881755         1.285408         2.205851
 C        -1.782247         3.536134         1.760275
 O        -2.632654         2.679949         0.939267
 C        -2.031806         1.754843         0.040936
 H         0.125582        -0.407307         0.448069
 H         1.288713         2.482220         0.405235
 H         0.052384         3.385770        -0.426470
 H         0.247836         4.538712         1.861323
 H        -0.735213         2.783825         3.872584
 H        -0.131349         0.840365         2.879021
 H        -1.824047         0.564231         2.445409
 H        -2.347759         4.324896         2.326528
 H        -2.693452         0.910649        -0.090898
 H        -1.833241         2.220572        -0.993049
