19
Iteration:  1823
 O        -0.119679         0.357452        -0.179228
 C        -0.707769         1.405755         0.621094
 C         0.304616         2.697587         0.738706
 C        -0.263297         3.372302         1.943016
 C        -1.257248         2.513033         2.787913
 C        -1.223487         1.080434         2.116712
 C        -1.756837         3.518948         1.754970
 O        -2.306068         3.089479         0.581579
 C        -2.008841         1.783898        -0.048129
 H         0.392601        -0.169213         0.466418
 H         1.285709         2.297299         0.763893
 H         0.330126         3.202387        -0.259534
 H         0.509161         4.085506         2.371921
 H        -1.336592         2.494857         3.890886
 H        -0.495498         0.584627         2.716949
 H        -2.203891         0.499972         2.034330
 H        -2.089314         4.534568         2.201989
 H        -2.770137         0.977173         0.294394
 H        -2.080963         1.944231        -1.104827
