19
Iteration:  4789charge 0 multiplicity 1
 O        -0.242286         0.216265        -0.011676
 C        -0.600701         1.412804         0.648749
 C         0.154958         2.781136         0.482298
 C        -0.298984         3.592044         1.684244
 C        -0.936750         2.568853         2.680227
 C        -0.801087         1.199944         2.178208
 C        -1.841517         3.431711         1.853604
 O        -2.549196         2.898606         0.674843
 C        -2.039228         1.730202         0.167049
 H        -0.803109         0.169094        -0.804118
 H         1.304209         2.810470         0.368609
 H        -0.316020         3.307792        -0.436034
 H         0.240487         4.517390         1.865835
 H        -0.786557         2.991613         3.728214
 H         0.043901         0.580251         2.625389
 H        -1.646478         0.624942         2.344638
 H        -2.556482         3.994244         2.531262
 H        -2.624059         0.770154         0.520562
 H        -2.057763         1.848471        -0.887573
