19
Iteration:   471charge 0 multiplicity 1
 O        -0.212674         0.350620        -0.142407
 C        -0.711120         1.383016         0.634565
 C         0.281699         2.560776         0.856141
 C        -0.343845         3.410662         1.880697
 C        -1.227553         2.444340         2.665323
 C        -0.985020         1.088064         2.090050
 C        -1.862813         3.526422         1.772031
 O        -2.383271         3.166211         0.584582
 C        -1.924870         1.873280        -0.038766
 H         0.382804        -0.211265         0.433249
 H         1.325746         2.127879         1.130817
 H         0.490463         2.954416        -0.177163
 H         0.216326         4.390400         2.338881
 H        -1.177235         2.582195         3.717469
 H        -0.073535         0.539669         2.476660
 H        -1.751120         0.365951         2.286653
 H        -2.393681         4.345977         2.232429
 H        -2.809350         1.148316         0.010528
 H        -1.628001         2.115926        -1.058905
