19
Iteration:  2618
 O        -0.113206         0.209285         0.096899
 C        -0.654628         1.451840         0.548606
 C         0.394231         2.654213         0.592798
 C        -0.323056         3.576660         1.603800
 C        -1.048258         2.490680         2.631174
 C        -0.985771         1.167945         2.003889
 C        -1.761033         3.475986         1.841877
 O        -2.688092         2.807026         0.934251
 C        -2.040549         2.034431        -0.061745
 H        -0.691379        -0.504746         0.481394
 H         1.380425         2.385392         0.963751
 H         0.532089         3.186666        -0.463763
 H         0.207573         4.404646         2.042782
 H        -0.953506         2.516794         3.706473
 H        -0.162483         0.707201         2.537936
 H        -1.909794         0.653559         2.269715
 H        -2.120773         4.510260         2.220014
 H        -2.606358         1.129511        -0.247700
 H        -2.057509         2.580199        -1.132030
