19
Iteration:  2879charge 0 multiplicity 1
 O        -0.087264         0.258587         0.055476
 C        -0.765260         1.327898         0.638495
 C         0.171263         2.683119         0.578536
 C        -0.301656         3.480345         1.722621
 C        -0.979436         2.537817         2.645105
 C        -0.817687         1.119063         2.121169
 C        -1.859706         3.438545         1.869220
 O        -2.556499         3.052703         0.702471
 C        -2.129489         1.887099         0.040622
 H        -0.157246         0.344509        -0.909264
 H         1.253863         2.371690         0.837767
 H         0.235481         3.064594        -0.409900
 H         0.339159         4.246180         2.065743
 H        -0.930214         2.720308         3.716370
 H         0.219983         0.756924         2.348964
 H        -1.445901         0.288189         2.471112
 H        -2.294566         4.378576         2.156666
 H        -3.008762         1.148480         0.075440
 H        -1.961289         2.070448        -1.063880
