19
Iteration:  3324
 O        -0.304448         0.283860        -0.120100
 C        -0.616768         1.470706         0.606162
 C         0.244284         2.686955         0.594192
 C        -0.382595         3.549759         1.657736
 C        -0.992195         2.582901         2.716931
 C        -0.742049         1.160139         2.118804
 C        -1.883473         3.417200         1.792104
 O        -2.573428         2.959030         0.761313
 C        -2.052222         1.733924         0.191274
 H         0.636209         0.164964        -0.440584
 H         1.337401         2.474331         0.876258
 H         0.142868         3.222185        -0.437133
 H         0.117558         4.519368         1.966352
 H        -0.850051         2.660694         3.782088
 H         0.111442         0.645208         2.535678
 H        -1.505092         0.405979         2.255379
 H        -2.327328         4.342708         2.131450
 H        -2.607753         0.839050         0.642041
 H        -2.150454         1.679492        -0.901600
