19
Iteration:   186charge 0 multiplicity 1
 O        -0.225550         0.313589        -0.124822
 C        -0.688554         1.421353         0.662033
 C         0.218724         2.701265         0.687758
 C        -0.279864         3.435094         1.943355
 C        -1.200465         2.435242         2.739016
 C        -1.058997         1.078184         2.146366
 C        -1.776296         3.471147         1.783695
 O        -2.329677         3.119203         0.523104
 C        -1.954633         1.838726        -0.041457
 H         0.434550        -0.167434         0.356909
 H         1.355101         2.575523         0.685992
 H        -0.038661         3.319363        -0.120075
 H         0.250656         4.026506         2.601933
 H        -1.289087         2.590125         3.871825
 H        -0.388260         0.328388         2.766734
 H        -2.014664         0.634942         2.185996
 H        -2.473537         4.301445         2.160461
 H        -2.736577         1.028260        -0.009277
 H        -1.561884         1.930832        -1.136758
