19
Iteration:  1485charge 0 multiplicity 1
 O        -0.170044         0.331536        -0.067028
 C        -0.695671         1.388238         0.617793
 C         0.228366         2.632614         0.755552
 C        -0.192826         3.455842         1.867077
 C        -1.100278         2.478240         2.727796
 C        -1.230722         1.136816         2.119197
 C        -1.780106         3.519938         1.763780
 O        -2.519033         2.898990         0.716260
 C        -1.844014         1.923417        -0.199850
 H         0.714028         0.221493         0.389125
 H         1.255448         2.368367         0.997158
 H         0.375818         3.171351        -0.195925
 H         0.456245         4.229749         2.283608
 H        -1.358221         2.791002         3.832267
 H        -0.614102         0.261924         2.469535
 H        -2.257548         0.944327         2.073630
 H        -2.310314         4.217561         2.443988
 H        -2.710182         1.297758        -0.559480
 H        -1.376421         2.438886        -1.143126
