19
Iteration:  3634charge 0 multiplicity 1
 O        -0.258587         0.266510        -0.102390
 C        -0.686751         1.453525         0.646228
 C         0.109059         2.707215         0.508949
 C        -0.345613         3.556577         1.608215
 C        -0.935874         2.609848         2.691171
 C        -0.614041         1.222117         2.148112
 C        -1.811948         3.453530         1.830252
 O        -2.635742         2.866391         0.782989
 C        -2.119022         1.679582         0.228956
 H         0.689615         0.446589        -0.324068
 H         1.167907         2.429790         0.564919
 H         0.042271         3.150469        -0.515741
 H         0.070554         4.558387         1.748220
 H        -0.977275         2.748571         3.794199
 H         0.379928         0.929338         2.422648
 H        -1.303514         0.506083         2.472235
 H        -2.282929         4.267585         2.302832
 H        -2.678013         0.803889         0.441644
 H        -2.190774         1.896232        -0.939588
