19
Iteration:  4439
 O        -0.196876         0.381517        -0.222246
 C        -0.676420         1.350402         0.645687
 C         0.136205         2.617321         0.478927
 C        -0.326591         3.546729         1.656063
 C        -0.977803         2.676511         2.726350
 C        -0.787976         1.190597         2.295701
 C        -1.793145         3.454023         1.779512
 O        -2.575940         2.884104         0.803902
 C        -2.028289         1.711572         0.167174
 H        -0.167920        -0.420552         0.356552
 H         1.215576         2.388150         0.389337
 H        -0.266951         3.102304        -0.477322
 H         0.335208         4.505398         1.756326
 H        -1.232518         2.961244         3.769997
 H         0.158710         0.776302         2.707181
 H        -1.568484         0.495947         2.547628
 H        -2.307921         4.437689         2.133736
 H        -2.769700         0.980702         0.267435
 H        -1.813286         2.014560        -0.956047
