19
Iteration:  2925charge 0 multiplicity 1
 O        -0.265447         0.340619        -0.192905
 C        -0.702758         1.428104         0.671245
 C         0.293891         2.716974         0.612833
 C        -0.330031         3.494511         1.827206
 C        -1.167189         2.488792         2.619121
 C        -0.795455         1.093761         2.184471
 C        -1.812851         3.557942         1.704769
 O        -2.374490         3.049919         0.523509
 C        -2.133008         1.650159         0.420632
 H         0.153177         0.606413        -1.044374
 H         1.273845         2.276158         0.706649
 H         0.265554         3.291860        -0.389294
 H         0.106463         4.330334         2.418292
 H        -1.063929         2.529183         3.700158
 H         0.187938         0.811056         2.633587
 H        -1.480742         0.185851         2.377388
 H        -2.445668         4.185778         2.197039
 H        -2.797769         0.909052         1.031638
 H        -2.421046         1.526340        -0.617175
