19
Iteration:  4904
 O        -0.209487         0.249576        -0.009963
 C        -0.716432         1.453826         0.598529
 C         0.242565         2.646215         0.510296
 C        -0.343368         3.543302         1.615780
 C        -0.872732         2.619173         2.651746
 C        -0.703177         1.201543         2.108440
 C        -1.856298         3.419482         1.809123
 O        -2.717491         2.849253         0.873156
 C        -2.067326         1.862876         0.055607
 H         0.145166        -0.313843         0.691891
 H         1.263920         2.544155         0.822271
 H         0.116089         3.005246        -0.529585
 H         0.025584         4.546375         1.864594
 H        -0.841902         2.833630         3.736266
 H         0.155652         0.694482         2.408265
 H        -1.589219         0.578449         2.498643
 H        -2.255632         4.393720         2.227526
 H        -2.637800         1.003259         0.065642
 H        -1.987565         2.229383        -0.994465
