19
Iteration:  3628charge 0 multiplicity 1
 O        -0.214618         0.293893        -0.081064
 C        -0.693521         1.405718         0.673315
 C         0.086211         2.652252         0.417421
 C        -0.391907         3.576838         1.617328
 C        -0.909354         2.613304         2.722402
 C        -0.621026         1.208474         2.171040
 C        -1.864591         3.416931         1.873098
 O        -2.615804         2.926009         0.755045
 C        -2.121924         1.706549         0.219759
 H         0.659606         0.483183        -0.435712
 H         1.185956         2.386646         0.491314
 H        -0.001226         3.042703        -0.605602
 H         0.161834         4.502562         1.729514
 H        -0.844825         2.683849         3.786771
 H         0.475963         0.992173         2.345044
 H        -1.409256         0.429799         2.486606
 H        -2.280098         4.389715         2.319563
 H        -2.686892         0.708474         0.356717
 H        -2.024022         1.956180        -0.788898
