19
Iteration:  3329
 O        -0.264103         0.280588        -0.138996
 C        -0.642237         1.459904         0.680030
 C         0.241211         2.706523         0.537508
 C        -0.332225         3.555454         1.671729
 C        -1.002318         2.559905         2.679086
 C        -0.759899         1.165380         2.100335
 C        -1.890036         3.432063         1.818507
 O        -2.561286         2.961316         0.741219
 C        -2.098121         1.720928         0.233531
 H         0.703614         0.288375        -0.122438
 H         1.259587         2.513360         0.749213
 H         0.274213         3.153637        -0.412417
 H         0.214691         4.423490         1.907964
 H        -1.003162         2.540954         3.792604
 H         0.185006         0.674275         2.522027
 H        -1.672367         0.500263         2.071793
 H        -2.423650         4.323166         2.181257
 H        -2.474879         0.802267         0.663054
 H        -2.293029         1.766846        -0.842840
