19
Iteration:  2858charge 0 multiplicity 1
 O        -0.219837         0.148023         0.156096
 C        -0.629834         1.502278         0.514886
 C         0.307771         2.687046         0.514016
 C        -0.327122         3.527127         1.725350
 C        -1.008867         2.499108         2.700317
 C        -0.845371         1.193251         2.040638
 C        -1.785180         3.454112         1.862270
 O        -2.713320         2.922055         0.836719
 C        -2.005175         1.937886        -0.029357
 H        -0.157317         0.103513        -0.811649
 H         1.369577         2.338889         0.656766
 H         0.397295         3.207861        -0.443690
 H         0.131588         4.452974         1.973420
 H        -0.973876         2.700741         3.766750
 H         0.030116         0.580927         2.398221
 H        -1.738626         0.536369         2.194244
 H        -2.380189         4.190205         2.372270
 H        -2.679560         1.032015        -0.046572
 H        -1.780592         2.179616        -1.071251
