19
Iteration:  1514
 O        -0.166098         0.316437        -0.119825
 C        -0.628568         1.428976         0.630333
 C         0.422278         2.502583         0.828190
 C        -0.337234         3.373595         1.784987
 C        -1.237819         2.515851         2.733656
 C        -1.022449         1.120826         2.068562
 C        -1.820260         3.530044         1.763647
 O        -2.626926         3.085688         0.658537
 C        -1.916597         1.919711        -0.069232
 H         0.569232        -0.085354         0.410362
 H         1.395520         2.241868         1.349642
 H         0.820182         2.964640        -0.084265
 H         0.151427         4.220729         2.165796
 H        -1.093445         2.543882         3.791722
 H        -0.161406         0.468370         2.471710
 H        -1.968543         0.451720         2.109021
 H        -2.376621         4.472121         2.235535
 H        -2.813992         1.344876        -0.191000
 H        -1.586573         2.305879        -0.971563
