19
Iteration:  2821
 O        -0.257851         0.309925        -0.125455
 C        -0.690321         1.365409         0.668561
 C         0.293858         2.514466         0.602615
 C        -0.310354         3.542625         1.612377
 C        -0.944366         2.689701         2.689989
 C        -0.946296         1.221291         2.206896
 C        -1.858583         3.529154         1.769326
 O        -2.668825         2.652011         0.929539
 C        -1.877189         1.975615        -0.017054
 H         0.029718         0.579872        -1.025833
 H         1.145882         2.141342         1.270058
 H         0.559411         2.788774        -0.405537
 H         0.229146         4.494458         1.891021
 H        -0.806569         2.999090         3.737650
 H        -0.083933         0.699291         2.640955
 H        -1.888162         0.713836         2.354170
 H        -2.369369         4.422812         2.302762
 H        -2.612689         1.177870        -0.246555
 H        -1.617541         2.576054        -0.972274
