19
Iteration:  3772
 O        -0.250350         0.360629        -0.224251
 C        -0.693144         1.346484         0.631831
 C         0.146128         2.637105         0.502605
 C        -0.372791         3.561428         1.502957
 C        -0.893940         2.716290         2.748262
 C        -0.541095         1.252421         2.296731
 C        -1.861284         3.437243         1.778527
 O        -2.728277         2.822368         0.892482
 C        -2.125353         1.676908         0.207350
 H         0.700054         0.251035        -0.046336
 H         1.251350         2.398548         0.554077
 H         0.219271         2.973514        -0.515761
 H        -0.109169         4.604863         1.568867
 H        -0.613526         3.024501         3.777475
 H         0.537897         1.021253         2.615099
 H        -1.217227         0.437217         2.694906
 H        -2.375360         4.261178         2.095808
 H        -2.771521         0.693391         0.221408
 H        -2.113168         1.925838        -0.877946
