19
Iteration:  1375charge 0 multiplicity 1
 O        -0.157469         0.290152        -0.039122
 C        -0.658784         1.449195         0.577529
 C         0.246148         2.696006         0.733496
 C        -0.349372         3.416703         1.925005
 C        -1.176109         2.374664         2.673344
 C        -1.064409         1.087188         2.089585
 C        -1.744458         3.559517         1.767957
 O        -2.415366         3.118338         0.557000
 C        -2.006769         1.859912         0.029044
 H         0.459366        -0.218726         0.465481
 H         1.282995         2.372165         0.894243
 H         0.229949         3.292595        -0.197812
 H         0.315926         4.017965         2.357229
 H        -1.116287         2.478627         3.751784
 H        -0.269985         0.462077         2.562146
 H        -1.782343         0.421415         1.829665
 H        -2.414673         4.240063         2.302818
 H        -2.865194         1.146415         0.121304
 H        -1.859748         2.000243        -1.134306
