19
Iteration:  1134
 O        -0.219278         0.258647        -0.037923
 C        -0.630625         1.514752         0.547829
 C         0.395285         2.685344         0.722380
 C        -0.209842         3.457528         2.013338
 C        -1.128573         2.432055         2.715521
 C        -1.079814         1.160681         2.063101
 C        -1.897938         3.466486         1.821447
 O        -2.568282         3.024622         0.564443
 C        -1.966816         1.846040        -0.124601
 H         0.530459        -0.071598         0.544403
 H         1.453926         2.360225         0.779043
 H         0.324743         3.260848        -0.254487
 H         0.517295         4.124844         2.707292
 H        -1.201162         2.623920         3.856988
 H        -0.187495         0.570438         2.471020
 H        -1.963816         0.492183         2.053717
 H        -2.421920         4.396763         2.238544
 H        -2.521497         0.940197         0.020804
 H        -1.947516         2.076353        -1.161710
