19
Iteration:  1012
 O        -0.109803         0.372230        -0.076022
 C        -0.700775         1.345851         0.692305
 C         0.239999         2.586237         0.769623
 C        -0.323413         3.429333         1.812697
 C        -1.114363         2.481379         2.786054
 C        -1.068564         0.981004         2.129803
 C        -1.791088         3.512266         1.800569
 O        -2.525365         3.123907         0.589561
 C        -1.984307         1.910040        -0.172022
 H         0.718915         0.078837         0.366692
 H         1.234209         2.302392         1.110285
 H         0.140190         3.140010        -0.140528
 H         0.201468         4.486694         2.124985
 H        -0.960662         2.351595         3.784624
 H        -0.161735         0.569310         2.640962
 H        -1.940620         0.500313         2.293051
 H        -2.281615         4.307851         2.228141
 H        -2.640683         1.166293        -0.629451
 H        -1.473990         2.266672        -1.032211
