19
Iteration:   632
 O        -0.246539         0.323930        -0.169529
 C        -0.661448         1.421206         0.661005
 C         0.343456         2.573093         0.762791
 C        -0.329463         3.483863         1.887049
 C        -1.240084         2.444643         2.703832
 C        -1.061352         1.108899         2.141734
 C        -1.749799         3.469538         1.739413
 O        -2.488050         3.111325         0.584012
 C        -1.854247         1.910420         0.011592
 H         0.499890        -0.096714         0.330914
 H         1.326367         2.105713         0.909692
 H         0.245067         2.987831        -0.315704
 H         0.199294         4.310526         2.449454
 H        -1.446077         2.554799         3.786417
 H        -0.283080         0.525504         2.577791
 H        -1.870608         0.270771         2.224494
 H        -2.381238         4.222994         2.323771
 H        -2.647041         1.144749         0.076413
 H        -1.487923         2.137446        -1.097580
