19
Iteration:  1338charge 0 multiplicity 1
 O        -0.143276         0.288649        -0.143934
 C        -0.680784         1.390144         0.685614
 C         0.214698         2.579945         0.703005
 C        -0.363927         3.398012         1.870847
 C        -1.191368         2.444569         2.783818
 C        -0.941015         1.062347         2.181226
 C        -1.819343         3.478195         1.781246
 O        -2.432253         3.168747         0.528793
 C        -2.000840         1.954046        -0.088445
 H         0.596238         0.014143         0.439758
 H         1.225284         2.276672         1.019832
 H         0.237458         3.130037        -0.233903
 H         0.300846         4.219852         2.388600
 H        -1.092277         2.626519         3.856651
 H        -0.101745         0.585007         2.761359
 H        -1.878394         0.485495         2.423832
 H        -2.435992         4.266386         2.211077
 H        -2.772244         1.130218        -0.153588
 H        -1.712926         2.321909        -1.095621
