19
Iteration:  1690charge 0 multiplicity 1
 O        -0.159993         0.275211         0.005274
 C        -0.723928         1.392031         0.620663
 C         0.394275         2.562400         0.826315
 C        -0.246822         3.406857         1.846748
 C        -1.165205         2.481044         2.644200
 C        -1.076613         1.075327         1.996196
 C        -1.779352         3.500632         1.764515
 O        -2.613919         3.010230         0.698351
 C        -1.925448         2.077466        -0.150043
 H         0.577359         0.014977         0.616136
 H         1.253756         2.003612         1.218661
 H         0.589532         3.045003        -0.150539
 H         0.233563         4.317709         2.287676
 H        -1.399356         2.483329         3.748002
 H        -0.291614         0.563773         2.459068
 H        -2.032450         0.551842         2.176115
 H        -2.113579         4.479294         2.088427
 H        -2.729755         1.394737        -0.502699
 H        -1.664247         2.685309        -0.989101
