19
Iteration:  1714
 O        -0.086999         0.317593        -0.119150
 C        -0.716839         1.417119         0.589818
 C         0.337517         2.534893         0.737203
 C        -0.275696         3.389920         1.824262
 C        -1.102670         2.539075         2.828414
 C        -1.305489         1.173853         2.091141
 C        -1.745232         3.511464         1.826414
 O        -2.530579         2.938831         0.705461
 C        -1.867112         1.970686        -0.182843
 H         0.624123         0.059914         0.529912
 H         1.281256         2.024004         1.166958
 H         0.428610         3.021218        -0.282753
 H         0.411003         4.128863         2.278326
 H        -1.232784         2.789297         3.872041
 H        -0.819909         0.320854         2.539583
 H        -2.329987         1.000021         2.072198
 H        -2.257072         4.307741         2.183934
 H        -2.610332         1.233250        -0.517428
 H        -1.736898         2.623469        -1.004704
