19
Iteration:   851
 O        -0.145433         0.292871        -0.174875
 C        -0.736968         1.340160         0.646499
 C         0.315046         2.544546         0.854357
 C        -0.271281         3.457793         1.844631
 C        -1.206777         2.557510         2.679328
 C        -0.997389         1.050001         2.128408
 C        -1.810708         3.485912         1.739148
 O        -2.584017         3.036745         0.634355
 C        -1.896523         2.022516        -0.035832
 H         0.735582        -0.044068         0.173614
 H         1.251215         2.176558         1.313014
 H         0.354164         3.095474        -0.121545
 H         0.190032         4.398328         2.291470
 H        -1.503710         2.566557         3.686541
 H        -0.045961         0.689103         2.522945
 H        -1.922479         0.451007         2.500115
 H        -2.351939         4.191260         2.166890
 H        -2.666189         1.431170        -0.485414
 H        -1.352021         2.327691        -0.889972
