19
Iteration:  3651
 O        -0.335073         0.285582        -0.163183
 C        -0.626442         1.409820         0.596101
 C         0.335655         2.801179         0.483866
 C        -0.313609         3.661019         1.727752
 C        -0.946703         2.658147         2.645309
 C        -0.679644         1.210648         2.166992
 C        -1.835780         3.447626         1.700816
 O        -2.717560         2.783900         0.885424
 C        -2.169565         1.622534         0.212034
 H         0.568214        -0.092104         0.000742
 H         1.427017         2.583116         0.645986
 H         0.336785         3.355199        -0.460449
 H         0.333982         4.461118         2.118229
 H        -0.888345         2.828848         3.749521
 H         0.429520         0.967139         2.430282
 H        -1.546871         0.474972         2.360407
 H        -2.355052         4.324206         2.155161
 H        -2.604011         0.632159         0.661871
 H        -2.273748         1.676787        -0.818106
