19
Iteration:  2775charge 0 multiplicity 1
 O        -0.215718         0.229161         0.014870
 C        -0.670907         1.457340         0.612123
 C         0.349218         2.628192         0.555890
 C        -0.298591         3.556336         1.670944
 C        -1.012169         2.544553         2.645453
 C        -0.839128         1.139385         2.072658
 C        -1.871756         3.530786         1.849324
 O        -2.686549         2.934165         0.816821
 C        -2.037011         1.814946         0.097195
 H         0.435948         0.362557        -0.711163
 H         1.278940         2.191023         0.940981
 H         0.290338         3.123274        -0.398317
 H         0.421577         4.283653         2.017884
 H        -1.009884         2.727146         3.700972
 H         0.039221         0.672182         2.447502
 H        -1.727000         0.513985         2.213546
 H        -2.359743         4.376373         2.153715
 H        -2.719111         0.993798         0.091460
 H        -1.890669         2.139334        -1.001361
