19
Iteration:  4902
 O        -0.213050         0.233907        -0.024824
 C        -0.697982         1.466076         0.592914
 C         0.233220         2.668596         0.520177
 C        -0.339229         3.532929         1.616177
 C        -0.876729         2.639771         2.671778
 C        -0.733135         1.198578         2.135341
 C        -1.835545         3.417362         1.804701
 O        -2.712633         2.834472         0.886838
 C        -2.064528         1.859325         0.036006
 H         0.132386        -0.338852         0.661585
 H         1.293430         2.568677         0.782567
 H         0.036231         3.044862        -0.543638
 H         0.077785         4.512247         1.901403
 H        -0.898006         2.907209         3.683623
 H         0.192079         0.673713         2.348725
 H        -1.560284         0.618985         2.432383
 H        -2.244326         4.377214         2.115118
 H        -2.664326         0.967272         0.074174
 H        -2.025063         2.235269        -0.974749
