19
Iteration:  1492
 O        -0.126468         0.325061        -0.072524
 C        -0.701698         1.479231         0.618007
 C         0.265226         2.566023         0.761290
 C        -0.248287         3.446894         1.852486
 C        -1.084629         2.540331         2.708686
 C        -1.216964         1.104633         2.139072
 C        -1.744768         3.436545         1.800259
 O        -2.541533         2.928883         0.690783
 C        -1.880936         1.985452        -0.196920
 H         0.708140         0.032476         0.322460
 H         1.291480         2.173731         1.015000
 H         0.428679         3.152129        -0.149991
 H         0.357783         4.187279         2.286896
 H        -1.425880         2.626895         3.672686
 H        -0.570496         0.313417         2.670669
 H        -2.328573         0.782293         2.220204
 H        -2.376105         4.343120         2.115677
 H        -2.659326         1.249354        -0.340380
 H        -1.623571         2.423954        -1.106564
