19
Iteration:   304charge 0 multiplicity 1
 O        -0.183143         0.257132        -0.031076
 C        -0.634967         1.466111         0.560695
 C         0.373217         2.517548         0.752814
 C        -0.339836         3.429218         1.795414
 C        -1.127240         2.483695         2.738057
 C        -1.145739         1.096334         2.054219
 C        -1.837716         3.469288         1.813301
 O        -2.548579         3.021891         0.733582
 C        -1.882752         2.072141        -0.178690
 H         0.613992        -0.056462         0.495269
 H         1.255970         2.016897         1.218602
 H         0.679756         3.040648        -0.218100
 H         0.193393         4.257326         2.088073
 H        -1.114244         2.807332         3.855673
 H        -0.490608         0.396088         2.533149
 H        -2.116715         0.557075         2.049850
 H        -2.241469         4.355978         2.440308
 H        -2.617204         1.264426        -0.271745
 H        -1.552090         2.542427        -1.069234
