19
Iteration:  3947
 O        -0.074832         0.293309        -0.028948
 C        -0.673981         1.397161         0.616049
 C         0.060561         2.654172         0.377400
 C        -0.411928         3.546400         1.518679
 C        -0.876775         2.622333         2.669867
 C        -0.574415         1.202979         2.205631
 C        -1.864064         3.450801         1.816918
 O        -2.715653         2.831159         0.993231
 C        -2.178865         1.838440         0.080809
 H         0.156568        -0.423004         0.549593
 H         1.206812         2.359485         0.390453
 H        -0.283419         3.085346        -0.550529
 H         0.206420         4.454455         1.803054
 H        -0.621070         2.892908         3.675349
 H         0.392883         0.816672         2.417568
 H        -1.316106         0.409490         2.666873
 H        -2.287426         4.485535         2.056535
 H        -2.901906         1.103946        -0.104421
 H        -1.909680         2.329774        -0.953435
