19
Iteration:  3128charge 0 multiplicity 1
 O         0.058702         0.410770        -0.172380
 C        -0.710925         1.374239         0.662881
 C         0.070361         2.608747         0.512748
 C        -0.360197         3.432411         1.746162
 C        -1.059391         2.521436         2.703969
 C        -0.861535         1.066576         2.194899
 C        -1.776245         3.511218         1.817711
 O        -2.512721         3.107529         0.665798
 C        -2.149646         1.765669         0.160679
 H        -0.266321        -0.449328         0.200390
 H         1.119819         2.382687         0.602908
 H        -0.152013         3.067700        -0.475940
 H         0.242144         4.346020         2.098125
 H        -1.056494         2.863726         3.792563
 H         0.151873         0.653089         2.538922
 H        -1.648566         0.398012         2.557979
 H        -2.113679         4.447326         2.270974
 H        -2.862271         1.097033         0.639724
 H        -2.202447         1.604527        -0.921628
