19
Iteration:   845
 O        -0.148736         0.256233        -0.173217
 C        -0.704806         1.341495         0.641041
 C         0.337501         2.544609         0.879634
 C        -0.337307         3.469456         1.822989
 C        -1.225556         2.521888         2.637739
 C        -0.959638         1.020859         2.181402
 C        -1.802319         3.536742         1.735170
 O        -2.573132         3.036509         0.661523
 C        -1.916905         2.063373        -0.074685
 H         0.690859         0.085053         0.287804
 H         1.271499         2.084095         1.240296
 H         0.551834         3.005770        -0.094795
 H         0.165723         4.355963         2.140254
 H        -1.553743         2.455382         3.734476
 H        -0.027724         0.635724         2.651784
 H        -1.743653         0.333447         2.429275
 H        -2.418283         4.428654         2.263697
 H        -2.748526         1.403956        -0.469283
 H        -1.566848         2.603894        -1.087225
