19
Iteration:   871
 O        -0.229322         0.385141        -0.134419
 C        -0.627615         1.485900         0.632072
 C         0.356905         2.592888         0.770846
 C        -0.328106         3.381803         1.848353
 C        -1.156727         2.508210         2.767438
 C        -1.104771         1.097474         2.205738
 C        -1.828937         3.493488         1.809267
 O        -2.491363         2.979237         0.595106
 C        -1.868582         1.900890        -0.149987
 H         0.607053         0.035184         0.235922
 H         1.306873         2.134882         1.088108
 H         0.345821         3.093829        -0.195643
 H         0.199344         4.242826         2.320931
 H        -1.153520         2.508980         3.812184
 H        -0.435312         0.406466         2.757779
 H        -2.118460         0.677628         2.051992
 H        -2.349182         4.349254         2.140645
 H        -2.590671         1.032639        -0.164968
 H        -1.819669         2.223222        -1.232441
