19
Iteration:  3061charge 0 multiplicity 1
 O        -0.348529         0.188983        -0.149494
 C        -0.641246         1.403859         0.670032
 C         0.351306         2.610005         0.593860
 C        -0.314352         3.515144         1.667425
 C        -0.995334         2.634073         2.708272
 C        -0.817009         1.224857         2.263387
 C        -1.937376         3.392005         1.794151
 O        -2.710392         2.841508         0.849386
 C        -1.877642         2.012476        -0.039067
 H         0.409808         0.395384        -0.711341
 H         1.372397         2.330094         0.887588
 H         0.402137         2.917712        -0.514680
 H        -0.031260         4.442478         1.983032
 H        -1.001997         2.838153         3.773561
 H         0.195665         0.872842         2.643047
 H        -1.480906         0.423476         2.582947
 H        -2.359601         4.193969         2.337307
 H        -2.361248         1.059150        -0.331972
 H        -1.670572         2.578194        -0.942865
