19
Iteration:  4757charge 0 multiplicity 1
 O        -0.007260         0.402336        -0.123198
 C        -0.749013         1.361111         0.653508
 C         0.184259         2.627139         0.530856
 C        -0.312780         3.520996         1.630125
 C        -1.034790         2.587801         2.710556
 C        -0.761559         1.118139         2.210638
 C        -1.777384         3.480137         1.780892
 O        -2.545791         2.973417         0.717006
 C        -2.279528         1.745904         0.198022
 H        -0.321697        -0.529152         0.009189
 H         1.280154         2.340195         0.631350
 H        -0.022533         3.108448        -0.500811
 H         0.252253         4.427907         1.792032
 H        -0.822406         3.034823         3.768172
 H         0.324869         0.878248         2.439279
 H        -1.429299         0.416278         2.542175
 H        -2.353387         4.327826         2.285367
 H        -2.993267         0.940998         0.594804
 H        -2.522262         1.810250        -0.844740
