19
Iteration:   412charge 0 multiplicity 1
 O        -0.142385         0.264395        -0.087001
 C        -0.689495         1.415506         0.581253
 C         0.273557         2.510901         0.782807
 C        -0.261239         3.410790         1.927872
 C        -1.242907         2.456186         2.706479
 C        -0.978791         1.077800         2.087598
 C        -1.869723         3.518536         1.815210
 O        -2.464674         3.197951         0.554773
 C        -1.958825         1.935392        -0.048489
 H         0.714856         0.185882         0.387752
 H         1.247937         2.095108         1.013156
 H         0.303673         3.068731        -0.252374
 H         0.486523         3.942747         2.355592
 H        -1.332796         2.654211         3.828956
 H        -0.070089         0.643335         2.472218
 H        -1.983139         0.449449         2.124510
 H        -2.457244         4.400462         2.276601
 H        -2.781111         1.244397        -0.006874
 H        -1.919098         2.080639        -1.128098
