19
Iteration:  3866
 O        -0.042960         0.413421        -0.126367
 C        -0.724072         1.332525         0.690854
 C         0.053526         2.642504         0.354790
 C        -0.346485         3.524184         1.581696
 C        -0.897303         2.624877         2.709269
 C        -0.532481         1.217072         2.270654
 C        -1.818778         3.500018         1.748374
 O        -2.773515         2.819792         0.861082
 C        -2.189129         1.722566         0.254639
 H        -0.552079        -0.357204        -0.405772
 H         1.145611         2.477288         0.484111
 H        -0.018148         3.204972        -0.624013
 H         0.254955         4.410561         1.652065
 H        -0.682872         3.137699         3.688560
 H         0.564609         0.962394         2.485099
 H        -1.154553         0.423658         2.801830
 H        -2.245038         4.397226         2.193972
 H        -2.986583         0.911047         0.293635
 H        -2.041801         1.990836        -0.846246
