19
Iteration:  1675charge 0 multiplicity 1
 O        -0.271535         0.225091        -0.083931
 C        -0.604364         1.484269         0.596193
 C         0.428304         2.521679         0.763797
 C        -0.333765         3.441563         1.799240
 C        -1.272655         2.451855         2.735155
 C        -1.029262         1.115356         2.135832
 C        -1.823593         3.477266         1.742704
 O        -2.576455         3.072892         0.684603
 C        -1.849799         2.076680        -0.098211
 H         0.460977        -0.187904         0.364795
 H         1.320801         2.210439         1.261020
 H         0.669052         3.032690        -0.160083
 H         0.251445         4.188295         2.277772
 H        -1.366840         2.692550         3.797263
 H        -0.153904         0.505951         2.561309
 H        -1.803967         0.295392         1.978784
 H        -2.443756         4.199270         2.414045
 H        -2.434668         1.189448        -0.330566
 H        -1.352394         2.345583        -1.081176
