19
Iteration:  2022charge 0 multiplicity 1
 O        -0.210769         0.184971        -0.124036
 C        -0.617507         1.340589         0.706758
 C         0.301836         2.501857         0.839011
 C        -0.319104         3.451670         1.855683
 C        -1.222208         2.461987         2.670350
 C        -0.944947         1.044892         2.152520
 C        -1.835210         3.527996         1.764657
 O        -2.530333         3.275700         0.526569
 C        -1.952346         1.981484        -0.081268
 H         0.764064         0.206828        -0.203132
 H         1.314031         2.179179         1.228597
 H         0.551400         3.087705        -0.070159
 H         0.175977         4.249484         2.378316
 H        -1.317967         2.692629         3.708771
 H        -0.082322         0.652376         2.740176
 H        -1.733800         0.329289         2.272660
 H        -2.344151         4.102147         2.462621
 H        -2.855596         1.289884         0.030848
 H        -1.778091         2.176411        -1.096846
