19
Iteration:  4201charge 0 multiplicity 1
 O        -0.058453         0.376053        -0.073882
 C        -0.721246         1.357069         0.659111
 C         0.105700         2.643319         0.486433
 C        -0.360967         3.605945         1.544892
 C        -0.804314         2.666138         2.698102
 C        -0.657261         1.197841         2.170347
 C        -1.811856         3.501479         1.772014
 O        -2.703401         2.907767         0.820188
 C        -2.188322         1.598943         0.244202
 H        -0.668921         0.012790        -0.724524
 H         1.146989         2.416624         0.699322
 H        -0.008709         3.011471        -0.482296
 H         0.334296         4.455630         1.710696
 H        -0.831086         2.948815         3.752330
 H         0.199336         0.633345         2.507448
 H        -1.500217         0.425236         2.449838
 H        -2.259857         4.275963         2.303178
 H        -2.874008         0.768351         0.548658
 H        -2.316828         1.723688        -0.806251
