19
Iteration:   683charge 0 multiplicity 1
 O        -0.175143         0.359504        -0.104058
 C        -0.681283         1.407966         0.664094
 C         0.206844         2.619207         0.765481
 C        -0.273545         3.411101         1.912838
 C        -1.202677         2.437046         2.678653
 C        -1.000753         1.054389         2.090218
 C        -1.824931         3.497330         1.780710
 O        -2.392904         3.174812         0.515046
 C        -1.971119         1.867525         0.010862
 H         0.524290        -0.082360         0.472409
 H         1.273768         2.186011         0.949339
 H         0.242971         3.047446        -0.221699
 H         0.448918         4.134879         2.217708
 H        -1.515097         2.488450         3.719493
 H        -0.243956         0.374128         2.644989
 H        -1.870639         0.445783         2.142879
 H        -2.338613         4.273355         2.387136
 H        -2.881072         1.185106         0.074485
 H        -1.811511         1.933741        -1.011262
