19
Iteration:  3370
 O        -0.013473         0.396017        -0.102682
 C        -0.731111         1.389858         0.632588
 C         0.002363         2.656522         0.453278
 C        -0.320973         3.462097         1.712703
 C        -0.952508         2.545138         2.786036
 C        -0.723152         1.151988         2.163376
 C        -1.798002         3.501489         1.879374
 O        -2.543754         2.982118         0.631067
 C        -2.163777         1.747557         0.197255
 H        -0.305391        -0.521165         0.140311
 H         1.061208         2.440837         0.369253
 H        -0.424231         3.103593        -0.502235
 H         0.188361         4.369015         1.797354
 H        -1.054537         2.705458         3.832707
 H         0.257012         0.749725         2.477523
 H        -1.493425         0.486828         2.509882
 H        -2.270724         4.373683         2.314560
 H        -3.028718         1.043651         0.390166
 H        -1.990828         1.806436        -0.885166
