19
Iteration:  1212
 O        -0.261474         0.321609        -0.138315
 C        -0.684561         1.453117         0.627729
 C         0.437305         2.611428         0.820094
 C        -0.238377         3.558339         1.844414
 C        -1.244959         2.487426         2.711116
 C        -1.098538         1.109623         2.085021
 C        -1.768555         3.484875         1.787457
 O        -2.531616         2.889019         0.693269
 C        -1.936588         1.929501        -0.123950
 H         0.680450         0.127219         0.175906
 H         1.350263         2.172550         1.279032
 H         0.876798         3.098976        -0.083367
 H         0.261178         4.456880         2.060232
 H        -1.329972         2.801960         3.734034
 H        -0.207535         0.551984         2.483724
 H        -1.932384         0.306291         2.218227
 H        -2.437472         4.225560         2.283330
 H        -2.634364         1.111977        -0.140119
 H        -1.766104         2.222731        -1.121712
