19
Iteration:   119charge 0 multiplicity 1
 O        -0.263481         0.297703        -0.209534
 C        -0.653577         1.405467         0.658383
 C         0.329944         2.570344         0.869485
 C        -0.283408         3.449115         1.918069
 C        -1.143620         2.511715         2.735029
 C        -1.075324         1.099892         2.144033
 C        -1.788198         3.532883         1.654026
 O        -2.520366         2.995441         0.620257
 C        -1.882558         1.945725        -0.053307
 H         0.588557        -0.036743         0.225849
 H         1.439689         2.255140         0.974761
 H         0.352453         3.112942        -0.028525
 H         0.296211         4.209076         2.438830
 H        -1.389070         2.743916         3.764242
 H        -0.307400         0.349415         2.623715
 H        -2.040189         0.654362         2.160819
 H        -2.294980         4.355306         2.091943
 H        -2.638264         1.145215        -0.064119
 H        -1.740122         2.397702        -1.080266
