19
Iteration:  4557
 O        -0.126018         0.323356        -0.069692
 C        -0.734980         1.446284         0.586825
 C         0.234063         2.600195         0.617261
 C        -0.329392         3.521482         1.604907
 C        -0.903703         2.586903         2.691365
 C        -0.804827         1.192158         2.083349
 C        -1.813001         3.452732         1.785587
 O        -2.660310         2.960867         0.774397
 C        -2.146427         1.776260         0.124535
 H         0.049825        -0.339272         0.621000
 H         1.165253         2.204406         1.022685
 H         0.380253         3.076905        -0.373831
 H         0.203870         4.482471         1.887623
 H        -0.638108         2.805345         3.734436
 H         0.170863         0.703755         2.517421
 H        -1.599532         0.543639         2.357095
 H        -2.467452         4.221119         2.333607
 H        -2.808547         0.882630         0.375609
 H        -2.131965         2.021573        -0.888442
