19
Iteration:  2384charge 0 multiplicity 1
 O        -0.167684         0.252783        -0.119883
 C        -0.697416         1.406050         0.578422
 C         0.321334         2.565154         0.716794
 C        -0.267025         3.541675         1.792332
 C        -1.013076         2.590018         2.715725
 C        -1.083689         1.155329         2.128010
 C        -1.753383         3.462059         1.763357
 O        -2.594039         2.909009         0.787873
 C        -1.998813         1.935376        -0.070059
 H         0.457701        -0.093847         0.541419
 H         1.311038         2.175487         1.031046
 H         0.356663         3.041235        -0.230506
 H         0.204904         4.420914         2.102581
 H        -1.240072         2.716995         3.764724
 H        -0.363615         0.467975         2.588524
 H        -2.094182         0.807495         2.115367
 H        -2.231926         4.402150         2.057994
 H        -2.687537         1.168351        -0.316097
 H        -1.852930         2.490135        -1.043137
