19
Iteration:    65charge 0 multiplicity 1
 O        -0.155191         0.243724        -0.005581
 C        -0.703571         1.395559         0.581912
 C         0.401802         2.597075         0.747093
 C        -0.135606         3.434511         1.866400
 C        -1.221425         2.448305         2.644624
 C        -1.081611         1.109528         2.055296
 C        -1.781394         3.483962         1.786805
 O        -2.637280         3.045184         0.699419
 C        -1.998095         2.024852        -0.135307
 H         0.684026         0.173600         0.546080
 H         1.363426         2.063439         1.160417
 H         0.568111         3.178546        -0.109277
 H         0.414529         4.271198         2.329227
 H        -1.596686         2.478829         3.645978
 H        -0.319378         0.525733         2.682293
 H        -1.937785         0.537900         2.146705
 H        -2.101804         4.373567         2.251647
 H        -2.727289         1.365714        -0.480766
 H        -1.667395         2.539448        -1.044101
