19
Iteration:  2585charge 0 multiplicity 1
 O        -0.143036         0.363736        -0.201402
 C        -0.710733         1.341432         0.672610
 C         0.306008         2.556132         0.696229
 C        -0.263644         3.575918         1.689403
 C        -0.938519         2.652146         2.698777
 C        -0.966513         1.207856         2.253379
 C        -1.786840         3.496996         1.754889
 O        -2.713831         2.760626         0.827418
 C        -1.985571         1.891177        -0.025064
 H        -0.730771        -0.381780        -0.413756
 H         1.299609         2.256402         1.028541
 H         0.338124         2.919300        -0.428437
 H         0.271018         4.453908         1.955013
 H        -0.909576         2.819267         3.726520
 H        -0.262150         0.589041         2.823641
 H        -1.973482         0.828045         2.475529
 H        -2.217550         4.471644         2.023760
 H        -2.638263         1.065266        -0.283247
 H        -1.549468         2.383495        -1.007382
