19
Iteration:   748
 O        -0.153887         0.319430        -0.075007
 C        -0.713875         1.496371         0.641507
 C         0.396628         2.573213         0.827999
 C        -0.292651         3.459814         1.787742
 C        -1.184397         2.405344         2.638366
 C        -1.041239         0.979100         2.089494
 C        -1.756431         3.491727         1.800112
 O        -2.597505         3.144659         0.600492
 C        -2.007104         1.932627        -0.060382
 H         0.578370         0.073689         0.497860
 H         1.275458         2.311347         1.391571
 H         0.811184         3.103290         0.027431
 H         0.290305         4.224888         2.259318
 H        -1.251088         2.427078         3.746726
 H        -0.161095         0.428263         2.573372
 H        -1.856247         0.350776         2.177749
 H        -2.370797         4.380355         2.097766
 H        -2.785362         1.131200        -0.100316
 H        -1.559644         2.150461        -0.992179
