19
Iteration:  1215charge 0 multiplicity 1
 O        -0.280505         0.306477        -0.111530
 C        -0.652826         1.457873         0.580438
 C         0.429465         2.653486         0.820354
 C        -0.220716         3.542995         1.869044
 C        -1.217830         2.483351         2.695161
 C        -1.100672         1.131165         2.089187
 C        -1.782265         3.500267         1.796921
 O        -2.525029         2.881750         0.698751
 C        -1.925154         1.892560        -0.111278
 H         0.631612         0.163752         0.197798
 H         1.256580         2.141173         1.295876
 H         0.826091         3.129768        -0.083690
 H         0.242088         4.439713         2.067283
 H        -1.389938         2.777429         3.690283
 H        -0.291676         0.490216         2.402115
 H        -2.002640         0.378426         2.102688
 H        -2.453488         4.170700         2.263725
 H        -2.737212         1.089436        -0.250298
 H        -1.788939         2.324753        -1.165062
