19
Iteration:   151
 O        -0.243348         0.307879        -0.133062
 C        -0.650260         1.448081         0.616250
 C         0.431499         2.461878         0.831155
 C        -0.359041         3.463154         1.800326
 C        -1.306221         2.462099         2.668731
 C        -0.905956         1.151257         2.167338
 C        -1.849376         3.396752         1.735442
 O        -2.476069         3.159536         0.590948
 C        -1.983282         1.986408        -0.000022
 H         0.485298        -0.023356         0.380979
 H         1.301860         1.951218         1.307330
 H         0.777172         2.889339        -0.073787
 H         0.292261         4.109172         2.357979
 H        -1.457029         2.614441         3.727682
 H         0.086944         0.679611         2.569795
 H        -1.681899         0.391972         2.195945
 H        -2.374040         4.140119         2.275947
 H        -2.796799         1.152579         0.035628
 H        -1.889394         2.248900        -1.149831
