19
Iteration:  1104charge 0 multiplicity 1
 O        -0.098886         0.333725        -0.146014
 C        -0.676781         1.442581         0.637216
 C         0.239123         2.527971         0.702560
 C        -0.396626         3.506312         1.812197
 C        -1.201187         2.394313         2.771459
 C        -1.031667         1.028988         2.161022
 C        -1.818668         3.553272         1.755277
 O        -2.461676         3.060200         0.613675
 C        -1.907010         1.974479         0.002400
 H         0.464480        -0.149600         0.461764
 H         1.152965         2.216676         1.164300
 H         0.316998         2.964244        -0.307359
 H         0.293124         4.203767         2.166809
 H        -1.164738         2.702317         3.863878
 H        -0.170488         0.595585         2.601193
 H        -1.943732         0.324124         2.174270
 H        -2.383135         4.427547         2.261312
 H        -2.646045         1.093115        -0.078764
 H        -1.668780         2.248211        -1.107921
