19
Iteration:   797
 O        -0.280129         0.302482        -0.110953
 C        -0.627514         1.424777         0.651027
 C         0.306609         2.678139         0.803907
 C        -0.285295         3.523926         1.918186
 C        -1.165042         2.518898         2.732085
 C        -1.110487         1.066072         2.110257
 C        -1.727990         3.470741         1.758357
 O        -2.510871         2.922369         0.666610
 C        -1.855366         1.939909        -0.186015
 H         0.585686        -0.158612         0.035237
 H         1.361450         2.394411         1.124246
 H         0.463806         3.123564        -0.245303
 H         0.220487         4.347781         2.530353
 H        -1.298543         2.657869         3.764040
 H        -0.555918         0.251891         2.567109
 H        -2.214140         0.644347         2.044067
 H        -2.357098         4.161855         2.115386
 H        -2.655212         1.231035        -0.309795
 H        -1.547286         2.337416        -1.175263
