19
Iteration:  1390
 O        -0.224678         0.309976        -0.216118
 C        -0.608978         1.384568         0.692673
 C         0.321556         2.661244         0.749838
 C        -0.303978         3.423385         1.898289
 C        -1.210650         2.521337         2.699056
 C        -1.065606         1.027830         2.088562
 C        -1.855004         3.484237         1.788664
 O        -2.415853         3.106762         0.573648
 C        -1.917493         1.848741         0.031781
 H         0.425112        -0.213236         0.323524
 H         1.416400         2.500753         0.932894
 H         0.311846         3.256966        -0.213246
 H         0.217718         4.334383         2.420222
 H        -1.391504         2.692989         3.829429
 H        -0.312297         0.558243         2.686137
 H        -2.122729         0.632756         2.245325
 H        -2.362344         4.393652         2.162329
 H        -2.580806         1.036952         0.293547
 H        -1.900479         1.982887        -1.004351
