19
Iteration:  2905charge 0 multiplicity 1
 O        -0.195590         0.345652        -0.198043
 C        -0.649935         1.338732         0.699572
 C         0.159970         2.669104         0.631317
 C        -0.272840         3.467658         1.781587
 C        -1.063434         2.558507         2.726288
 C        -0.832214         1.131876         2.253404
 C        -1.828671         3.458144         1.768545
 O        -2.449252         3.085891         0.563873
 C        -2.105339         1.681240         0.217205
 H        -0.022015         0.855562        -1.000696
 H         1.193880         2.542214         0.557964
 H        -0.072966         3.107658        -0.426780
 H         0.446566         4.292853         2.046210
 H        -1.280779         2.730903         3.786651
 H        -0.010419         0.575193         2.723201
 H        -1.720779         0.444517         2.273431
 H        -2.313029         4.372727         2.103716
 H        -2.735205         0.974080         0.794252
 H        -2.284192         1.594715        -0.851724
