19
Iteration:  2180charge 0 multiplicity 1
 O         0.049716         0.273418         0.034954
 C        -0.696483         1.434670         0.592722
 C         0.298229         2.518096         0.716780
 C        -0.246926         3.341079         1.842007
 C        -1.059038         2.538253         2.797708
 C        -1.189592         1.154079         2.084521
 C        -1.756714         3.495716         1.744091
 O        -2.654822         3.059413         0.687002
 C        -1.990162         2.021105        -0.160709
 H        -0.602044        -0.396079        -0.255144
 H         1.214340         2.036751         0.949442
 H         0.459302         2.983289        -0.296084
 H         0.291759         4.179916         2.096663
 H        -1.034245         2.741373         3.833469
 H        -0.456731         0.389726         2.488184
 H        -2.220146         0.739892         2.178696
 H        -2.152672         4.314008         2.292341
 H        -2.691315         1.212572        -0.359271
 H        -1.663292         2.499621        -1.084088
