19
Iteration:  1471
 O        -0.174565         0.244208        -0.062808
 C        -0.723999         1.390367         0.651678
 C         0.330171         2.668726         0.695931
 C        -0.332690         3.446443         1.906848
 C        -1.107425         2.522060         2.772369
 C        -1.216778         1.144908         2.014426
 C        -1.758705         3.532055         1.811763
 O        -2.492218         2.908970         0.704319
 C        -1.835560         1.974438        -0.139376
 H         0.757166         0.095431         0.105593
 H         1.363708         2.278069         0.794215
 H         0.193795         3.205486        -0.235554
 H         0.120407         4.261086         2.355383
 H        -0.930373         2.430397         3.785199
 H        -0.681865         0.375958         2.690593
 H        -2.253970         0.735204         1.958375
 H        -2.438450         4.421507         1.980587
 H        -2.498593         1.170349        -0.458496
 H        -1.456628         2.482067        -1.004869
