19
Iteration:  1005charge 0 multiplicity 1
 O        -0.101549         0.410304        -0.076266
 C        -0.764853         1.364738         0.665346
 C         0.231486         2.587829         0.766192
 C        -0.307956         3.408155         1.828273
 C        -1.129068         2.443126         2.721871
 C        -1.034898         1.081719         2.157301
 C        -1.810821         3.468827         1.751378
 O        -2.504686         3.065702         0.581152
 C        -1.945439         1.956371        -0.090747
 H         0.656825         0.145987         0.424010
 H         1.237645         2.179748         0.978870
 H         0.293770         2.972236        -0.288791
 H         0.227990         4.139995         2.424955
 H        -0.959146         2.383932         3.855517
 H        -0.271634         0.485328         2.658393
 H        -2.056137         0.545947         2.307073
 H        -2.271219         4.369308         2.184714
 H        -2.728637         1.141213        -0.324586
 H        -1.526379         2.355382        -1.104926
