19
Iteration:   835
 O        -0.184564         0.257504        -0.129908
 C        -0.623366         1.391590         0.650333
 C         0.376364         2.496383         0.814268
 C        -0.385385         3.471439         1.812078
 C        -1.252725         2.418666         2.701520
 C        -0.941941         1.059943         2.165665
 C        -1.861707         3.539313         1.733928
 O        -2.589742         3.072721         0.704701
 C        -1.927001         2.063048        -0.186060
 H         0.707637         0.013130         0.253418
 H         1.266568         2.142382         1.395409
 H         0.782302         2.923323        -0.079845
 H         0.217009         4.230075         2.225456
 H        -1.256778         2.774652         3.789624
 H        -0.040552         0.682497         2.720735
 H        -1.676465         0.326703         2.200550
 H        -2.270746         4.588300         2.236500
 H        -2.625605         1.178954        -0.278334
 H        -1.569670         2.628543        -1.172413
