19
Iteration:  1015charge 0 multiplicity 1
 O        -0.109363         0.338407        -0.083448
 C        -0.678500         1.354697         0.703210
 C         0.246697         2.577636         0.766315
 C        -0.337376         3.454911         1.826383
 C        -1.108538         2.490753         2.788324
 C        -1.065898         0.961321         2.119066
 C        -1.785260         3.520431         1.826867
 O        -2.535893         3.142467         0.595360
 C        -1.980188         1.894190        -0.190486
 H         0.700047         0.060443         0.308279
 H         1.256774         2.358600         1.109685
 H         0.162153         3.229898        -0.134821
 H         0.173347         4.509682         1.972971
 H        -1.030621         2.469486         3.924869
 H        -0.186539         0.567099         2.584142
 H        -2.013550         0.349949         2.305166
 H        -2.323105         4.316016         2.245897
 H        -2.743520         1.142575        -0.665653
 H        -1.397932         2.315194        -1.124244
