19
Iteration:  1755
 O        -0.316448         0.267674        -0.131643
 C        -0.662892         1.404191         0.631153
 C         0.412519         2.535938         0.843038
 C        -0.292014         3.388097         1.893482
 C        -1.202758         2.501482         2.700529
 C        -0.958533         1.090835         2.141217
 C        -1.861012         3.512329         1.769366
 O        -2.554679         3.084413         0.578018
 C        -1.887108         2.009473        -0.103872
 H         0.583764         0.001333         0.017241
 H         1.250667         2.158720         1.318714
 H         0.857945         3.139988         0.060270
 H         0.281407         4.178505         2.462879
 H        -1.535229         2.642557         3.733046
 H        -0.089197         0.636241         2.554165
 H        -1.897209         0.435478         2.267839
 H        -2.226325         4.447965         2.034176
 H        -2.698204         1.222506        -0.237588
 H        -1.410837         2.254867        -1.064028
