19
Iteration:  3652
 O        -0.335963         0.287352        -0.169008
 C        -0.620568         1.411451         0.599150
 C         0.348063         2.803933         0.479802
 C        -0.311447         3.661563         1.726729
 C        -0.944998         2.663199         2.644062
 C        -0.687400         1.210020         2.165270
 C        -1.843937         3.453802         1.709615
 O        -2.723022         2.778451         0.881875
 C        -2.170603         1.616703         0.219730
 H         0.543985        -0.120146         0.030570
 H         1.411799         2.578895         0.622098
 H         0.372662         3.332930        -0.469669
 H         0.332279         4.461626         2.138597
 H        -0.886906         2.816492         3.772781
 H         0.435618         0.955398         2.435722
 H        -1.536501         0.486403         2.367264
 H        -2.333255         4.306151         2.131273
 H        -2.591278         0.623669         0.637272
 H        -2.282036         1.712872        -0.810382
