19
Iteration:  4741charge 0 multiplicity 1
 O        -0.046040         0.399506        -0.164587
 C        -0.708416         1.363069         0.656982
 C         0.158005         2.540275         0.501540
 C        -0.268118         3.440405         1.656316
 C        -1.058881         2.532672         2.653179
 C        -0.673857         1.221612         2.206566
 C        -1.820800         3.522677         1.737001
 O        -2.713078         3.084955         0.765214
 C        -2.174654         1.718299         0.233018
 H         0.190887        -0.344186         0.417771
 H         1.157655         2.141490         0.686501
 H         0.127392         3.000311        -0.456929
 H         0.348159         4.277849         2.056656
 H        -1.234615         2.643737         3.659022
 H         0.308923         1.029876         2.603441
 H        -1.312944         0.300656         2.594984
 H        -2.133785         4.445124         2.148949
 H        -2.899653         0.957652         0.622027
 H        -2.082078         1.795792        -0.889786
