19
Iteration:  2162
 O        -0.066784         0.407813        -0.086174
 C        -0.735087         1.329453         0.706296
 C         0.273589         2.497764         0.713195
 C        -0.267824         3.473218         1.750800
 C        -1.134968         2.525302         2.635986
 C        -1.236289         1.090835         2.140304
 C        -1.752079         3.586505         1.797721
 O        -2.477477         2.946129         0.739740
 C        -1.864045         1.961775        -0.084207
 H        -0.400180        -0.491008         0.069504
 H         1.301643         2.219843         1.069347
 H         0.368937         3.017708        -0.219741
 H         0.353924         4.200795         2.289978
 H        -1.115988         2.551134         3.724530
 H        -0.722162         0.255689         2.621818
 H        -2.324103         0.750924         2.200222
 H        -2.263080         4.491163         2.044718
 H        -2.692318         1.289062        -0.376581
 H        -1.421720         2.535186        -1.006085
