19
Iteration:  2132
 O        -0.289174         0.274447        -0.190045
 C        -0.588758         1.431141         0.630299
 C         0.460495         2.502639         0.886710
 C        -0.284869         3.398518         1.889557
 C        -1.131285         2.583056         2.712966
 C        -1.022856         1.144121         2.156563
 C        -1.866343         3.524135         1.759336
 O        -2.631700         3.034075         0.573548
 C        -1.903999         1.965884        -0.110496
 H        -0.162493        -0.512218         0.362729
 H         1.473367         2.143623         1.275362
 H         0.747732         3.201226         0.055901
 H         0.319644         4.291201         2.343608
 H        -1.255538         2.454232         3.828550
 H        -0.180234         0.546002         2.543659
 H        -1.973913         0.666603         2.278582
 H        -2.208384         4.552464         2.070921
 H        -2.471455         1.004317        -0.096265
 H        -1.742920         2.185422        -1.114372
