19
Iteration:   595charge 0 multiplicity 1
 O        -0.259149         0.237035        -0.191470
 C        -0.694295         1.425695         0.652370
 C         0.353775         2.550075         0.867120
 C        -0.304466         3.502591         1.868195
 C        -1.142199         2.470016         2.786794
 C        -1.030455         1.134591         2.126718
 C        -1.832149         3.490499         1.745792
 O        -2.544009         3.037222         0.600134
 C        -1.873844         1.991585        -0.123332
 H         0.608488        -0.092684         0.208935
 H         1.401793         2.142680         1.248612
 H         0.668296         2.970095        -0.071718
 H         0.191610         4.307224         2.331052
 H        -1.252343         2.648553         3.856122
 H        -0.138386         0.594337         2.539458
 H        -1.935447         0.610145         2.262803
 H        -2.447922         4.229070         2.193646
 H        -2.537238         1.101320        -0.312492
 H        -1.664979         2.380661        -1.091930
