19
Iteration:  2619charge 0 multiplicity 1
 O        -0.110188         0.199965         0.096352
 C        -0.655637         1.449192         0.557068
 C         0.380312         2.658075         0.597091
 C        -0.320153         3.582291         1.603098
 C        -1.045561         2.489142         2.628782
 C        -0.975153         1.161808         2.005280
 C        -1.757519         3.482131         1.838876
 O        -2.688578         2.811053         0.928025
 C        -2.044565         2.032682        -0.064122
 H        -0.692450        -0.489843         0.502989
 H         1.402217         2.382752         0.931141
 H         0.541014         3.194146        -0.462495
 H         0.211133         4.425018         2.064371
 H        -0.950844         2.473392         3.749045
 H        -0.166752         0.701381         2.534336
 H        -1.904205         0.634252         2.266236
 H        -2.166596         4.531884         2.241017
 H        -2.651764         1.142592        -0.288338
 H        -2.053013         2.615435        -1.119801
