19
Iteration:  2508
 O        -0.110223         0.252793        -0.044074
 C        -0.696159         1.399826         0.606553
 C         0.111972         2.687504         0.573060
 C        -0.344702         3.456294         1.792211
 C        -1.060418         2.507970         2.729110
 C        -0.932253         1.159317         2.081007
 C        -1.828540         3.463728         1.869152
 O        -2.381201         3.154860         0.595714
 C        -2.069339         1.740145         0.093862
 H         0.061222        -0.451401         0.588474
 H         1.145174         2.491489         0.429928
 H        -0.060401         3.270660        -0.411793
 H         0.296735         4.243846         2.170834
 H        -1.044315         2.624499         3.775383
 H         0.068920         0.788974         2.340693
 H        -1.684460         0.473773         2.405329
 H        -2.386607         4.215001         2.302301
 H        -2.837561         1.083931         0.459937
 H        -2.088242         1.823763        -1.036669
