19
Iteration:  2091charge 0 multiplicity 1
 O        -0.247198         0.237863        -0.072246
 C        -0.666257         1.369799         0.661864
 C         0.263465         2.592038         0.733276
 C        -0.341325         3.423395         1.834872
 C        -1.263540         2.418759         2.762377
 C        -1.003074         1.084358         2.119607
 C        -1.813526         3.484327         1.820233
 O        -2.395323         3.201275         0.555749
 C        -1.863093         1.942841        -0.072945
 H         0.688283         0.078842         0.107547
 H         1.268918         2.327323         0.960618
 H         0.250828         2.952374        -0.335511
 H         0.270906         4.362335         2.145046
 H        -1.284528         2.632084         3.886106
 H        -0.219585         0.531147         2.688273
 H        -1.879876         0.422650         2.270229
 H        -2.421473         4.389409         2.214629
 H        -2.740845         1.254641        -0.094074
 H        -1.637732         2.296833        -1.099223
