19
Iteration:  3201charge 0 multiplicity 1
 O        -0.241907         0.273957        -0.142718
 C        -0.642355         1.375993         0.645997
 C         0.251073         2.636607         0.595188
 C        -0.348982         3.565247         1.681326
 C        -1.030646         2.501798         2.693489
 C        -0.719700         1.199961         2.173917
 C        -1.850264         3.444588         1.793952
 O        -2.698102         3.004292         0.765262
 C        -2.014869         1.842334         0.082259
 H         0.655736        -0.024967         0.190165
 H         1.254438         2.128451         0.902874
 H         0.213897         3.113017        -0.434583
 H         0.360028         4.316178         2.002947
 H        -1.204152         2.775803         3.763242
 H         0.217696         0.773769         2.469932
 H        -1.432546         0.388941         2.509581
 H        -2.343649         4.248065         2.306428
 H        -2.752564         0.983936         0.101961
 H        -1.903300         2.107257        -0.974317
