19
Iteration:   391
 O        -0.245273         0.270443        -0.124389
 C        -0.668638         1.376644         0.650278
 C         0.423008         2.625746         0.887548
 C        -0.342267         3.431189         1.817014
 C        -1.167130         2.381824         2.707613
 C        -0.976557         1.078749         2.181020
 C        -1.791462         3.429548         1.738290
 O        -2.510692         3.167773         0.542287
 C        -2.014187         1.996608        -0.054025
 H         0.702998         0.057866         0.091604
 H         1.219237         2.101006         1.414369
 H         0.674782         3.046305        -0.172107
 H        -0.001249         4.315485         2.238493
 H        -1.438495         2.556283         3.800984
 H        -0.049307         0.673203         2.559173
 H        -1.884860         0.314807         2.233040
 H        -2.235228         4.425187         2.063499
 H        -2.912915         1.391502        -0.214111
 H        -1.768148         2.323557        -1.045651
