19
Iteration:  2522
 O        -0.126759         0.227641         0.035047
 C        -0.710665         1.420134         0.538237
 C         0.254708         2.794401         0.546226
 C        -0.293328         3.574972         1.796846
 C        -1.102465         2.438592         2.686477
 C        -0.822890         1.095001         2.084699
 C        -1.790640         3.463643         1.821186
 O        -2.426441         3.054120         0.620395
 C        -2.183270         1.805664         0.095343
 H        -0.536463        -0.494944         0.570072
 H         1.216996         2.452959         0.915702
 H         0.170566         3.338241        -0.403861
 H         0.138573         4.442336         2.214182
 H        -1.209934         2.494908         3.749608
 H        -0.011738         0.592843         2.579008
 H        -1.738348         0.465423         2.005616
 H        -2.345778         4.325098         2.315990
 H        -2.926128         0.988388         0.466992
 H        -2.343030         1.841075        -0.940052
