19
Iteration:  2961charge 0 multiplicity 1
 O        -0.147418         0.239126        -0.024259
 C        -0.724524         1.368345         0.644834
 C         0.218279         2.651485         0.581289
 C        -0.350936         3.478416         1.774381
 C        -1.009734         2.413730         2.720104
 C        -0.681572         1.116196         2.212091
 C        -1.924042         3.467932         1.767971
 O        -2.515256         3.214052         0.584033
 C        -2.147553         1.795221         0.114879
 H        -0.202578         0.553479        -0.965002
 H         1.190103         2.245052         0.746293
 H         0.134231         3.113986        -0.507228
 H         0.204587         4.375563         2.202970
 H        -0.958145         2.721146         3.788106
 H         0.383046         0.858245         2.437076
 H        -1.336526         0.239519         2.458375
 H        -2.505542         4.281362         2.414987
 H        -2.977605         1.082360         0.470031
 H        -2.118354         1.842353        -0.991511
