19
Iteration:   729charge 0 multiplicity 1
 O        -0.278611         0.303486        -0.154765
 C        -0.663804         1.429362         0.620839
 C         0.363853         2.550268         0.854227
 C        -0.355731         3.456889         1.915136
 C        -1.181371         2.470233         2.713095
 C        -0.942866         1.158797         2.071918
 C        -1.831321         3.453016         1.772131
 O        -2.444240         3.098925         0.562235
 C        -1.963262         1.925585        -0.034897
 H         0.499537        -0.174351         0.217117
 H         1.394682         2.150619         1.271369
 H         0.574811         3.165931        -0.070593
 H         0.194225         4.208063         2.397878
 H        -1.378460         2.679137         3.792767
 H        -0.151651         0.534108         2.579175
 H        -1.802283         0.407900         2.112384
 H        -2.605206         4.255171         2.155514
 H        -2.589302         0.989874        -0.008267
 H        -1.911053         2.081376        -1.130346
