19
Iteration:  4392charge 0 multiplicity 1
 O        -0.158974         0.182745         0.065830
 C        -0.683594         1.471459         0.579591
 C         0.268580         2.702678         0.469722
 C        -0.318232         3.591531         1.570832
 C        -0.972598         2.577330         2.680012
 C        -0.753577         1.192047         2.056580
 C        -1.811489         3.512537         1.854774
 O        -2.720837         2.889526         0.874807
 C        -2.107604         1.739573         0.149378
 H         0.146459         0.489478        -0.831792
 H         1.182302         2.418734         0.869602
 H         0.376578         3.121202        -0.519337
 H         0.242782         4.438606         1.594607
 H        -0.877025         2.923605         3.727184
 H         0.172964         0.654572         2.415167
 H        -1.542571         0.490476         2.235034
 H        -2.403271         4.184811         2.356984
 H        -2.555936         0.834111         0.533387
 H        -2.360912         1.895402        -0.954537
