19
Iteration:  2523charge 0 multiplicity 1
 O        -0.128971         0.225292         0.038262
 C        -0.705872         1.431466         0.526422
 C         0.263503         2.796981         0.551458
 C        -0.293407         3.575410         1.796591
 C        -1.100251         2.433645         2.674976
 C        -0.818712         1.087318         2.094183
 C        -1.786655         3.466861         1.812830
 O        -2.437294         3.045052         0.620737
 C        -2.188462         1.814754         0.101174
 H        -0.575629        -0.479125         0.542790
 H         1.259816         2.434313         0.914400
 H         0.196416         3.329197        -0.371151
 H         0.153392         4.469372         2.214414
 H        -1.224848         2.499931         3.786100
 H         0.010303         0.586096         2.600338
 H        -1.754482         0.466400         2.019389
 H        -2.388632         4.332711         2.321656
 H        -2.941886         0.983242         0.462812
 H        -2.335085         1.838253        -0.938348
