19
Iteration:  3997charge 0 multiplicity 1
 O        -0.253169         0.341797        -0.183811
 C        -0.640604         1.504731         0.635877
 C         0.243227         2.759228         0.451171
 C        -0.334117         3.570382         1.580151
 C        -0.876499         2.704798         2.690652
 C        -0.793885         1.256872         2.219136
 C        -1.797041         3.504263         1.747454
 O        -2.654797         2.681216         0.941027
 C        -2.109686         1.614101         0.207705
 H        -0.611290        -0.533769         0.057633
 H         1.303959         2.637854         0.641381
 H         0.083866         3.187577        -0.592035
 H         0.206844         4.513592         1.667826
 H        -0.665019         2.920523         3.743167
 H         0.359175         0.986082         2.512219
 H        -1.522484         0.532232         2.429779
 H        -2.406109         4.200309         2.172039
 H        -2.647569         0.612033         0.510259
 H        -2.106131         1.660517        -0.845181
