19
Iteration:  1376
 O        -0.163201         0.291509        -0.049438
 C        -0.648784         1.446246         0.577242
 C         0.250651         2.697536         0.742855
 C        -0.351921         3.410700         1.914519
 C        -1.174559         2.384496         2.667007
 C        -1.071305         1.089957         2.095090
 C        -1.747682         3.561785         1.763537
 O        -2.414251         3.113756         0.560499
 C        -2.000125         1.858471         0.032000
 H         0.449675        -0.230233         0.435406
 H         1.297863         2.375072         0.923250
 H         0.189613         3.319880        -0.185934
 H         0.329766         4.040309         2.375989
 H        -1.113795         2.497746         3.797868
 H        -0.309691         0.449519         2.556011
 H        -1.783545         0.375837         1.836330
 H        -2.425321         4.233916         2.330946
 H        -2.848147         1.162171         0.139918
 H        -1.852630         1.968258        -1.104813
