19
Iteration:  3086
 O        -0.344746         0.250152        -0.047425
 C        -0.646877         1.472211         0.610305
 C         0.211334         2.757309         0.628131
 C        -0.313253         3.550793         1.734320
 C        -0.990025         2.521156         2.725302
 C        -0.827233         1.145952         2.097602
 C        -1.800915         3.486901         1.748009
 O        -2.596032         2.892186         0.770746
 C        -1.997535         1.799600         0.025097
 H         0.599196        -0.007207        -0.118310
 H         1.315288         2.382722         0.974732
 H         0.388980         3.268695        -0.345302
 H         0.175791         4.551575         2.055476
 H        -0.861031         2.530784         3.861846
 H         0.034920         0.601522         2.523984
 H        -1.555689         0.357044         2.177034
 H        -2.377096         4.282609         2.238296
 H        -2.561749         0.861539         0.109760
 H        -1.976417         2.143837        -1.078764
