19
Iteration:  1389charge 0 multiplicity 1
 O        -0.223510         0.308483        -0.209213
 C        -0.604418         1.386788         0.688927
 C         0.316002         2.665891         0.752396
 C        -0.301557         3.417871         1.892404
 C        -1.206201         2.520461         2.695934
 C        -1.072812         1.026260         2.083363
 C        -1.853369         3.490706         1.782472
 O        -2.413537         3.106574         0.577171
 C        -1.920252         1.848910         0.032059
 H         0.427552        -0.212392         0.342607
 H         1.409729         2.506413         0.953021
 H         0.281495         3.290951        -0.191173
 H         0.202699         4.296499         2.418838
 H        -1.379253         2.696076         3.843029
 H        -0.318168         0.544933         2.677608
 H        -2.092728         0.613995         2.235340
 H        -2.372736         4.389442         2.201340
 H        -2.586465         1.043210         0.313455
 H        -1.897278         1.967820        -1.029876
