19
Iteration:  1593
 O        -0.014502         0.249437        -0.045594
 C        -0.640388         1.352426         0.569855
 C         0.231264         2.666704         0.691966
 C        -0.284296         3.416927         1.889876
 C        -1.246887         2.424621         2.609867
 C        -1.083678         0.988316         2.114673
 C        -1.775949         3.536604         1.829511
 O        -2.419227         3.274381         0.548820
 C        -2.080877         1.855935         0.037863
 H         0.770038         0.036716         0.524349
 H         1.269125         2.348427         1.061128
 H         0.118467         3.177858        -0.288152
 H         0.319456         4.202472         2.421516
 H        -1.610717         2.397962         3.731449
 H        -0.224016         0.394484         2.680553
 H        -1.967886         0.374302         2.015393
 H        -2.149410         4.438939         2.338180
 H        -3.000661         1.307069         0.322199
 H        -2.238434         2.106865        -0.997692
