19
Iteration:  2451
 O        -0.230437         0.230873        -0.065367
 C        -0.573677         1.459059         0.561845
 C         0.432427         2.556544         0.755846
 C        -0.321252         3.474617         1.771383
 C        -1.089833         2.607181         2.674035
 C        -0.866332         1.183988         2.070922
 C        -1.917438         3.497117         1.783958
 O        -2.610285         3.022233         0.686689
 C        -2.068314         1.812696         0.082003
 H        -0.182554         0.330879        -1.046227
 H         1.097494         1.988179         1.401780
 H         0.869704         2.955594        -0.174527
 H         0.316689         4.238299         2.341242
 H        -1.004146         2.801524         3.833444
 H        -0.009413         0.651421         2.539865
 H        -1.773638         0.610214         2.207999
 H        -2.398083         4.482823         2.090272
 H        -2.749047         1.043466         0.340006
 H        -2.097429         1.813132        -1.079743
