19
Iteration:  4466charge 0 multiplicity 1
 O        -0.317685         0.188933        -0.025654
 C        -0.635415         1.422232         0.552283
 C         0.273863         2.738535         0.543996
 C        -0.357244         3.578754         1.681000
 C        -0.917480         2.570710         2.670424
 C        -0.702852         1.160379         2.101559
 C        -1.871441         3.502386         1.832100
 O        -2.687425         2.981314         0.743502
 C        -2.073951         1.701718         0.152559
 H         0.651422         0.179008         0.164691
 H         1.354423         2.459390         0.836629
 H         0.344725         3.292169        -0.383324
 H         0.291260         4.334768         1.933605
 H        -0.975472         2.896335         3.719758
 H         0.299626         0.821323         2.398737
 H        -1.467104         0.332990         2.301805
 H        -2.366361         4.297010         2.279907
 H        -2.737860         0.836936         0.526316
 H        -2.144408         1.785713        -0.877302
