19
Iteration:  3676
 O        -0.225116         0.362658        -0.206687
 C        -0.616612         1.454991         0.622826
 C         0.243242         2.633313         0.527288
 C        -0.386269         3.581234         1.550362
 C        -0.912609         2.677965         2.664732
 C        -0.701743         1.259653         2.175301
 C        -1.869613         3.397664         1.802587
 O        -2.735202         2.784706         0.936147
 C        -2.047964         1.730612         0.186221
 H        -0.201314        -0.457356         0.337592
 H         1.257327         2.451172         0.769832
 H         0.337084         3.126444        -0.444026
 H         0.138277         4.536333         1.556493
 H        -0.719547         2.922698         3.737955
 H         0.292277         0.854312         2.570842
 H        -1.560249         0.638168         2.338950
 H        -2.315956         4.189508         2.289495
 H        -2.521830         0.812292         0.512537
 H        -2.082845         1.801783        -0.898286
