19
Iteration:   777charge 0 multiplicity 1
 O        -0.115232         0.287792        -0.183221
 C        -0.694190         1.407501         0.623325
 C         0.303792         2.543024         0.713668
 C        -0.301701         3.368116         1.899353
 C        -1.187130         2.532342         2.741774
 C        -1.163806         1.153920         2.114722
 C        -1.853964         3.533629         1.841064
 O        -2.489692         3.008447         0.689318
 C        -1.855127         1.953959        -0.095907
 H         0.622055        -0.055588         0.318352
 H         1.342060         2.338005         0.993070
 H         0.303652         3.230669        -0.192634
 H         0.251808         4.309880         2.266181
 H        -1.171200         2.536806         3.811062
 H        -0.415845         0.618308         2.659918
 H        -2.139607         0.590327         2.258408
 H        -2.321158         4.419420         1.986449
 H        -2.581066         1.162606        -0.330074
 H        -1.420719         2.256674        -1.132092
