19
Iteration:   541
 O        -0.187542         0.309099        -0.124810
 C        -0.709625         1.379952         0.638182
 C         0.303096         2.559767         0.767187
 C        -0.256374         3.487831         1.848502
 C        -1.155112         2.513133         2.728663
 C        -1.183921         1.121081         2.113002
 C        -1.772136         3.438261         1.802289
 O        -2.461460         2.981373         0.705670
 C        -1.851550         1.955600        -0.172630
 H         0.721941         0.075743         0.209071
 H         1.351076         2.164418         1.006580
 H         0.412378         3.240033        -0.057829
 H         0.095923         4.355395         2.140022
 H        -1.440605         2.708284         3.784285
 H        -0.698587         0.410301         2.763512
 H        -2.187518         0.750163         2.214992
 H        -2.287959         4.312302         2.251613
 H        -2.728322         1.281563        -0.444854
 H        -1.576149         2.639739        -1.071339
