19
Iteration:   125
 O        -0.276754         0.323849        -0.185491
 C        -0.655677         1.420809         0.649613
 C         0.388149         2.547022         0.878994
 C        -0.314681         3.410896         1.935439
 C        -1.168978         2.539384         2.702874
 C        -1.033048         1.055246         2.147354
 C        -1.760483         3.550774         1.679481
 O        -2.577284         3.011549         0.591467
 C        -1.894372         1.954564        -0.049915
 H         0.521532         0.014495         0.260613
 H         1.390294         2.275119         1.047667
 H         0.493664         3.158833        -0.111730
 H         0.393161         4.221666         2.336263
 H        -1.392689         2.542495         3.773603
 H        -0.202952         0.529405         2.528445
 H        -2.007595         0.418822         2.234851
 H        -2.179595         4.530445         2.000723
 H        -2.592266         1.049343        -0.002240
 H        -1.729463         2.209297        -1.101529
