19
Iteration:   682charge 0 multiplicity 1
 O        -0.165946         0.355474        -0.096125
 C        -0.691964         1.409709         0.653784
 C         0.216463         2.618418         0.757161
 C        -0.273644         3.408528         1.915332
 C        -1.202629         2.432697         2.682636
 C        -1.003192         1.060906         2.087373
 C        -1.821795         3.486002         1.794486
 O        -2.397423         3.187404         0.514363
 C        -1.978814         1.864791         0.006198
 H         0.528264        -0.078224         0.470334
 H         1.228937         2.154383         0.969473
 H         0.294954         3.048269        -0.210424
 H         0.455747         4.204181         2.195551
 H        -1.531057         2.492793         3.704025
 H        -0.249581         0.389157         2.632521
 H        -1.848314         0.454930         2.130749
 H        -2.337851         4.258387         2.336162
 H        -2.852785         1.148967         0.111680
 H        -1.836849         1.938804        -1.009538
