19
Iteration:   193
 O        -0.212980         0.337341        -0.110268
 C        -0.679679         1.420986         0.661112
 C         0.208962         2.695736         0.668722
 C        -0.252356         3.379547         1.947980
 C        -1.209819         2.452636         2.718865
 C        -1.102728         1.080902         2.146124
 C        -1.784543         3.454000         1.824679
 O        -2.302910         3.057126         0.526154
 C        -1.919715         1.890101        -0.051823
 H         0.429704        -0.075480         0.446506
 H         1.238173         2.611199         0.513873
 H        -0.029487         3.331240        -0.224505
 H         0.301212         4.195995         2.467887
 H        -1.576535         2.618771         3.701645
 H        -0.370959         0.541417         2.695780
 H        -2.113363         0.579324         2.252922
 H        -2.349121         4.260319         2.179478
 H        -2.728327         1.152419         0.243634
 H        -1.890547         2.045727        -1.132074
