19
Iteration:  3054charge 0 multiplicity 1
 O        -0.295684         0.205896        -0.140845
 C        -0.606232         1.405943         0.669192
 C         0.320176         2.556192         0.608381
 C        -0.323219         3.543161         1.598173
 C        -0.998223         2.625672         2.701890
 C        -0.833193         1.153882         2.289933
 C        -1.899404         3.432145         1.755238
 O        -2.772310         2.807115         0.864437
 C        -1.920130         2.069709        -0.017442
 H         0.365254         0.465950        -0.783894
 H         1.289972         2.137783         1.171290
 H         0.488204         3.042181        -0.326891
 H         0.214442         4.552676         1.807730
 H        -0.723846         2.693339         3.799603
 H         0.173004         0.927853         2.615219
 H        -1.553767         0.450826         2.688459
 H        -2.365003         4.227339         2.333172
 H        -2.416853         1.206534        -0.447986
 H        -1.512488         2.692531        -0.898370
