19
Iteration:   549charge 0 multiplicity 1
 O        -0.151687         0.288824        -0.109486
 C        -0.676585         1.372175         0.616942
 C         0.339129         2.560967         0.813269
 C        -0.252052         3.405929         1.865750
 C        -1.097471         2.508823         2.741152
 C        -1.217454         1.136416         2.100727
 C        -1.821154         3.467961         1.804687
 O        -2.547872         2.977524         0.667178
 C        -1.893292         2.047376        -0.143499
 H         0.736977         0.110606         0.258393
 H         1.453705         2.271123         0.849460
 H         0.293211         3.003535        -0.200849
 H         0.302391         4.388431         2.176449
 H        -1.277852         2.709462         3.829484
 H        -0.481910         0.454799         2.648121
 H        -2.197474         0.736177         2.081888
 H        -2.278166         4.469676         2.112302
 H        -2.661946         1.296593        -0.399288
 H        -1.504553         2.355904        -1.071955
