19
Iteration:   283charge 0 multiplicity 1
 O        -0.305540         0.240835        -0.188295
 C        -0.708595         1.350644         0.666758
 C         0.390108         2.637685         0.861153
 C        -0.222829         3.472409         1.901511
 C        -1.190075         2.506339         2.692626
 C        -1.046223         1.147628         2.116212
 C        -1.800386         3.502234         1.744590
 O        -2.565987         2.962166         0.642406
 C        -1.847837         1.989637        -0.100724
 H         0.537634        -0.071492         0.116709
 H         1.430175         2.339464         0.950548
 H         0.352498         3.139999        -0.104632
 H         0.151821         4.259020         2.440982
 H        -1.345687         2.669397         3.828544
 H        -0.350332         0.526286         2.653240
 H        -1.929238         0.573804         2.110251
 H        -2.211217         4.450126         2.255014
 H        -2.541456         1.176096        -0.412457
 H        -1.280421         2.464961        -0.900201
