19
Iteration:   692
 O        -0.227610         0.370342        -0.168291
 C        -0.652272         1.368803         0.734434
 C         0.215670         2.615182         0.765608
 C        -0.321122         3.421860         1.908142
 C        -1.205184         2.456892         2.666301
 C        -1.017318         0.994656         2.148892
 C        -1.807991         3.561372         1.725975
 O        -2.365625         3.110338         0.527774
 C        -1.934960         1.891606         0.016249
 H         0.468464        -0.172893         0.314544
 H         1.274539         2.554453         0.789930
 H        -0.032943         3.160776        -0.113038
 H         0.387531         3.999513         2.579844
 H        -1.279943         2.581754         3.728063
 H        -0.164257         0.506896         2.680516
 H        -1.909466         0.464539         2.185939
 H        -2.379902         4.264825         2.259198
 H        -2.832912         1.242919        -0.000277
 H        -1.591652         2.046761        -0.979367
