19
Iteration:  4087
 O        -0.198775         0.308352        -0.074059
 C        -0.646269         1.416267         0.622756
 C         0.088448         2.712600         0.341400
 C        -0.244388         3.619089         1.574034
 C        -0.907425         2.672207         2.682504
 C        -0.721257         1.255481         2.303522
 C        -1.827920         3.486736         1.806802
 O        -2.630470         2.727570         0.911025
 C        -2.082341         1.640354         0.180609
 H        -0.403240         0.452358        -1.006574
 H         1.148821         2.575737         0.394331
 H        -0.308242         3.082151        -0.658393
 H         0.283205         4.589264         1.844688
 H        -0.705342         2.838779         3.730021
 H         0.118108         0.819947         3.051273
 H        -1.579066         0.537315         2.301552
 H        -2.488923         4.397653         2.102696
 H        -2.810458         0.751252         0.391875
 H        -2.121349         1.797874        -0.875766
