19
Iteration:  4155
 O        -0.243332         0.173797         0.061372
 C        -0.622015         1.460693         0.630571
 C         0.128831         2.784598         0.381582
 C        -0.295521         3.623902         1.615427
 C        -0.902420         2.619855         2.669262
 C        -0.638471         1.221026         2.056853
 C        -1.823544         3.496851         1.802770
 O        -2.728941         2.801672         0.872464
 C        -2.098485         1.702536         0.215407
 H         0.210747         0.230740        -0.807170
 H         1.174984         2.488665         0.399242
 H        -0.186336         3.293408        -0.526234
 H         0.105439         4.569126         1.753365
 H        -0.740601         2.724985         3.747329
 H         0.335500         0.824970         2.517494
 H        -1.435928         0.449436         2.483169
 H        -2.297367         4.414846         2.195378
 H        -2.621903         0.718921         0.485548
 H        -2.207511         1.815057        -0.844741
