19
Iteration:  4090
 O        -0.209302         0.316509        -0.083771
 C        -0.617634         1.396903         0.649304
 C         0.083880         2.701896         0.345771
 C        -0.257293         3.630983         1.569172
 C        -0.910849         2.675404         2.655642
 C        -0.697006         1.250770         2.323611
 C        -1.832336         3.493527         1.807314
 O        -2.622489         2.725419         0.900200
 C        -2.108301         1.640212         0.189263
 H        -0.365635         0.597047        -1.011716
 H         1.162273         2.512514         0.355177
 H        -0.229492         3.056325        -0.594422
 H         0.307616         4.491637         1.792563
 H        -0.719473         2.829792         3.732853
 H         0.104117         0.873385         3.014074
 H        -1.670976         0.547546         2.347875
 H        -2.538703         4.331334         2.217267
 H        -2.806525         0.774663         0.338719
 H        -2.088502         1.888127        -0.929710
