19
Iteration:  2745
 O        -0.220520         0.185345        -0.001304
 C        -0.722487         1.426249         0.629298
 C         0.097085         2.818028         0.493885
 C        -0.291612         3.523078         1.820708
 C        -0.934242         2.516101         2.769857
 C        -0.793677         1.117449         2.251327
 C        -1.869841         3.422665         1.851251
 O        -2.426017         3.023540         0.566417
 C        -2.066420         1.744512         0.037927
 H        -0.237732         0.258687        -0.958478
 H         1.266165         2.692047         0.285528
 H        -0.295895         3.420851        -0.294614
 H         0.398479         4.321159         2.142511
 H        -1.121449         2.782136         3.782510
 H         0.081156         0.537343         2.632975
 H        -1.719055         0.570571         2.462249
 H        -2.420372         4.332264         2.176533
 H        -2.920043         1.061472         0.287746
 H        -1.937575         1.916441        -1.008811
