19
Iteration:  1136charge 0 multiplicity 1
 O        -0.228805         0.257148        -0.036476
 C        -0.626765         1.525473         0.542189
 C         0.381603         2.690383         0.727572
 C        -0.204138         3.448963         2.010572
 C        -1.130865         2.445196         2.730280
 C        -1.071949         1.165291         2.061877
 C        -1.890246         3.475947         1.819850
 O        -2.557686         3.006699         0.559643
 C        -1.956226         1.855396        -0.114305
 H         0.494828        -0.018212         0.539492
 H         1.397878         2.336098         0.769599
 H         0.400290         3.241509        -0.252542
 H         0.444300         4.063709         2.619461
 H        -1.185260         2.555762         3.871551
 H        -0.241538         0.566366         2.429224
 H        -1.951726         0.427896         2.025100
 H        -2.522507         4.367015         2.233413
 H        -2.548301         0.915098         0.065173
 H        -1.957111         2.105717        -1.218304
