19
Iteration:  3631charge 0 multiplicity 1
 O        -0.234613         0.280401        -0.091361
 C        -0.689533         1.431792         0.663409
 C         0.094430         2.675669         0.459753
 C        -0.373572         3.565016         1.614154
 C        -0.922385         2.613591         2.704781
 C        -0.620787         1.214268         2.158837
 C        -1.840940         3.436631         1.857492
 O        -2.622808         2.896232         0.762879
 C        -2.122824         1.695681         0.227414
 H         0.672681         0.468303        -0.383765
 H         1.131535         2.406793         0.496837
 H         0.050410         3.069142        -0.545739
 H         0.128324         4.551245         1.723970
 H        -0.915269         2.697839         3.841685
 H         0.504052         0.970176         2.371984
 H        -1.384886         0.473890         2.470819
 H        -2.241955         4.317725         2.303111
 H        -2.660135         0.720533         0.386172
 H        -2.101779         1.959879        -0.839094
