19
Iteration:  1222charge 0 multiplicity 1
 O        -0.288082         0.274035        -0.069529
 C        -0.631489         1.479193         0.531281
 C         0.392517         2.683018         0.813967
 C        -0.253593         3.488531         1.896715
 C        -1.139135         2.514804         2.692713
 C        -1.085803         1.151904         2.060193
 C        -1.805271         3.482299         1.772894
 O        -2.529484         2.899367         0.712384
 C        -1.919859         1.868407        -0.116518
 H         0.659723         0.046017         0.178289
 H         1.235679         2.124150         1.292339
 H         0.670954         3.218377        -0.118085
 H         0.244220         4.386963         2.297131
 H        -1.403381         2.567151         3.759528
 H        -0.353916         0.421254         2.491343
 H        -2.110198         0.750301         1.915326
 H        -2.441847         4.289644         2.217922
 H        -2.615109         1.097780        -0.310576
 H        -1.728752         2.362053        -1.030019
