19
Iteration:   824
 O        -0.240890         0.288003        -0.064956
 C        -0.596312         1.456050         0.615407
 C         0.436390         2.532540         0.794224
 C        -0.354249         3.379498         1.781064
 C        -1.244978         2.503955         2.767491
 C        -0.992585         1.132172         2.072959
 C        -1.853037         3.436643         1.815276
 O        -2.640751         3.068411         0.628713
 C        -1.856124         2.019465        -0.107753
 H         0.663785        -0.096114         0.097324
 H         1.280562         2.158123         1.409487
 H         0.750687         2.986425        -0.125177
 H         0.126711         4.113078         2.360233
 H        -1.008538         2.619339         3.878994
 H        -0.080913         0.629197         2.486168
 H        -1.780351         0.449783         2.109828
 H        -2.440866         4.400778         2.227914
 H        -2.608916         1.217963        -0.358931
 H        -1.510090         2.356661        -1.178836
