19
Iteration:   554
 O        -0.136375         0.273134        -0.099672
 C        -0.668038         1.405013         0.634522
 C         0.367380         2.555330         0.776899
 C        -0.270343         3.375690         1.878025
 C        -1.108570         2.527105         2.753417
 C        -1.192439         1.129523         2.101152
 C        -1.815045         3.504935         1.782942
 O        -2.603780         2.993031         0.656729
 C        -1.903678         2.058392        -0.119741
 H         0.729881         0.113359         0.280304
 H         1.380351         2.267795         1.015006
 H         0.280315         2.955067        -0.235146
 H         0.352097         4.116449         2.269324
 H        -1.073584         2.560475         3.835125
 H        -0.459210         0.451004         2.448266
 H        -2.255061         0.706681         2.017546
 H        -2.253257         4.391910         2.084339
 H        -2.584269         1.197972        -0.357122
 H        -1.423870         2.367151        -1.161096
