19
Iteration:  4498charge 0 multiplicity 1
 O        -0.185957         0.239495         0.010949
 C        -0.703680         1.388498         0.630379
 C         0.211294         2.703769         0.526922
 C        -0.328868         3.554050         1.599172
 C        -0.984849         2.534909         2.727456
 C        -0.727139         1.150414         2.188625
 C        -1.821938         3.469605         1.845677
 O        -2.614033         3.014491         0.722554
 C        -2.132483         1.720073         0.098568
 H        -0.185715         0.458184        -0.938713
 H         1.352851         2.478218         0.742413
 H         0.225879         3.207172        -0.449456
 H         0.258600         4.364004         1.920704
 H        -0.798019         2.967548         3.713590
 H         0.263938         0.953148         2.554304
 H        -1.397694         0.274251         2.540321
 H        -2.307979         4.284991         2.275396
 H        -2.870959         0.889894         0.268868
 H        -2.125926         1.856908        -0.962662
