19
Iteration:  3545charge 0 multiplicity 1
 O        -0.179070         0.282882        -0.189608
 C        -0.652479         1.406243         0.747165
 C         0.235243         2.629620         0.577070
 C        -0.401883         3.647095         1.584677
 C        -0.918355         2.628727         2.680723
 C        -0.611184         1.178858         2.191043
 C        -1.838751         3.479967         1.777987
 O        -2.742274         2.873035         0.814016
 C        -2.052688         1.685101         0.204798
 H        -0.914317         0.107057        -0.832679
 H         1.377613         2.495451         0.771914
 H         0.070519         3.033204        -0.505461
 H        -0.075627         4.719485         1.688498
 H        -0.848280         2.987045         3.819757
 H         0.409605         0.815081         2.460302
 H        -1.409416         0.573492         2.547887
 H        -2.451909         4.209655         2.399974
 H        -2.593884         0.766776         0.244822
 H        -2.173085         1.983512        -0.946212
