19
Iteration:  4928charge 0 multiplicity 1
 O        -0.189556         0.241537        -0.114284
 C        -0.662488         1.422884         0.647134
 C         0.250615         2.631243         0.552215
 C        -0.399012         3.615116         1.462513
 C        -0.948435         2.593091         2.673863
 C        -0.667303         1.157794         2.207939
 C        -1.869625         3.397042         1.870032
 O        -2.704070         3.005948         0.818442
 C        -2.124013         1.789821         0.112088
 H         0.358735        -0.358573         0.398513
 H         1.224805         2.480068         1.045414
 H         0.379898         2.921082        -0.460773
 H         0.269258         4.329668         1.931383
 H        -0.880690         3.122726         3.691268
 H         0.317386         0.832842         2.459033
 H        -1.321053         0.197467         2.499407
 H        -2.396540         4.243870         2.440301
 H        -2.813977         0.965050         0.187105
 H        -2.039713         2.082397        -0.976563
