19
Iteration:  2002
 O        -0.422009         0.177413        -0.125649
 C        -0.649709         1.388294         0.664814
 C         0.417541         2.641315         0.801991
 C        -0.360616         3.477660         1.904545
 C        -1.232439         2.469541         2.727118
 C        -0.941351         1.068171         2.124760
 C        -1.894336         3.456589         1.738517
 O        -2.435912         3.099831         0.563181
 C        -1.811414         2.013618        -0.058270
 H         0.536762         0.128285        -0.062564
 H         1.266680         2.488561         1.317643
 H         0.578777         3.179169        -0.149883
 H         0.183388         4.408163         2.239183
 H        -1.382257         2.484882         3.816398
 H        -0.088526         0.546849         2.628364
 H        -1.704653         0.369064         2.266622
 H        -2.278723         4.350026         2.090033
 H        -2.568735         1.196663        -0.190456
 H        -1.390942         2.286498        -1.008572
