19
Iteration:  1327
 O        -0.234000         0.335707        -0.156852
 C        -0.699003         1.355149         0.677516
 C         0.264911         2.644798         0.769327
 C        -0.346476         3.464165         1.861156
 C        -1.176796         2.490184         2.701990
 C        -0.963870         1.013875         2.168384
 C        -1.842523         3.549399         1.795005
 O        -2.467321         3.103340         0.557609
 C        -1.874807         1.879668        -0.014840
 H         0.611619        -0.152995         0.055732
 H         1.242633         2.271690         1.103602
 H         0.411212         3.017573        -0.243611
 H         0.251746         4.319519         2.455942
 H        -1.385431         2.552213         3.788838
 H        -0.139647         0.344145         2.552194
 H        -1.860916         0.313589         2.097885
 H        -2.212641         4.507393         2.183404
 H        -2.780881         1.189043        -0.040699
 H        -1.490784         1.913132        -1.078931
