19
Iteration:  3948charge 0 multiplicity 1
 O        -0.071349         0.298107        -0.026528
 C        -0.671366         1.384182         0.614582
 C         0.064540         2.655563         0.388046
 C        -0.416497         3.544731         1.511535
 C        -0.879488         2.623595         2.662638
 C        -0.575996         1.194818         2.212149
 C        -1.856687         3.453129         1.821613
 O        -2.719877         2.832276         0.992192
 C        -2.187890         1.844974         0.074736
 H         0.178218        -0.431697         0.537848
 H         1.225467         2.386328         0.378855
 H        -0.263921         3.068311        -0.565690
 H         0.186609         4.436103         1.818312
 H        -0.576138         2.875240         3.668319
 H         0.421030         0.838021         2.398001
 H        -1.329226         0.437769         2.668301
 H        -2.297049         4.523810         2.059828
 H        -2.904874         1.093513        -0.078578
 H        -1.938624         2.327883        -0.955409
