19
Iteration:   464charge 0 multiplicity 1
 O        -0.198047         0.331835        -0.180828
 C        -0.695153         1.396384         0.680377
 C         0.284593         2.590916         0.775781
 C        -0.355911         3.398994         1.960005
 C        -1.147319         2.459043         2.700523
 C        -1.024792         1.117916         2.108295
 C        -1.825979         3.466284         1.787227
 O        -2.388291         3.155005         0.515860
 C        -1.934634         1.857089        -0.031084
 H         0.384296        -0.249850         0.384414
 H         1.179285         2.174977         1.189846
 H         0.348228         3.117404        -0.146652
 H         0.189053         4.224641         2.330972
 H        -1.288042         2.655188         3.803965
 H        -0.224759         0.573577         2.647010
 H        -1.988713         0.600741         2.265821
 H        -2.482809         4.297543         2.246845
 H        -2.889145         1.278031         0.040316
 H        -1.683156         2.162479        -1.114036
