19
Iteration:  2268
 O        -0.149457         0.343180        -0.100736
 C        -0.677932         1.363341         0.681759
 C         0.245426         2.532209         0.735474
 C        -0.274303         3.404003         1.889737
 C        -1.133208         2.515945         2.660785
 C        -0.966883         1.057696         2.049707
 C        -1.791235         3.599226         1.735568
 O        -2.451399         3.135003         0.559616
 C        -2.140999         1.819140         0.105885
 H         0.729383         0.129048         0.265402
 H         1.219704         2.254687         1.111203
 H         0.397940         2.973372        -0.296050
 H         0.293779         4.230474         2.287602
 H        -1.198516         2.599724         3.763704
 H        -0.016784         0.803680         2.511093
 H        -1.852223         0.419280         2.060676
 H        -2.349503         4.448725         2.126835
 H        -2.941918         1.040142         0.221718
 H        -2.031273         2.014242        -0.913286
