19
Iteration:  4979charge 0 multiplicity 1
 O        -0.204076         0.322360        -0.094969
 C        -0.717318         1.410452         0.623161
 C         0.163080         2.753433         0.459184
 C        -0.290215         3.542705         1.680802
 C        -0.906071         2.556418         2.710669
 C        -0.837540         1.170664         2.261769
 C        -1.786259         3.478242         1.739872
 O        -2.519382         2.916167         0.711144
 C        -2.171131         1.653243         0.210420
 H         0.762285         0.285586        -0.163450
 H         1.231381         2.492811         0.409228
 H        -0.124263         3.342743        -0.469171
 H         0.091481         4.524665         1.963566
 H        -0.884410         2.713182         3.797219
 H         0.061800         0.639417         2.702826
 H        -1.644475         0.590527         2.545439
 H        -2.431854         4.303298         2.180233
 H        -2.887702         0.890821         0.624911
 H        -2.285460         1.674241        -0.886793
