19
Iteration:  3869charge 0 multiplicity 1
 O        -0.044761         0.420389        -0.148358
 C        -0.694527         1.353217         0.703739
 C         0.078979         2.636299         0.365955
 C        -0.340982         3.493312         1.556980
 C        -0.910265         2.663113         2.685156
 C        -0.526431         1.214181         2.279328
 C        -1.842008         3.507025         1.756914
 O        -2.758934         2.826272         0.876611
 C        -2.233285         1.705036         0.264119
 H        -0.574010        -0.339999        -0.424148
 H         1.244741         2.325440         0.533009
 H        -0.035466         3.130732        -0.634729
 H         0.172437         4.455276         1.779189
 H        -0.712155         3.107394         3.677564
 H         0.470247         0.958680         2.507126
 H        -1.091291         0.355362         2.820257
 H        -2.279820         4.324784         2.170344
 H        -2.946140         0.928458         0.237017
 H        -2.002883         1.998333        -0.862632
