19
Iteration:  3414
 O        -0.281434         0.224124        -0.072266
 C        -0.632784         1.433382         0.628962
 C         0.299761         2.706990         0.522008
 C        -0.362192         3.585388         1.677821
 C        -0.981402         2.579449         2.751438
 C        -0.659119         1.248802         2.095974
 C        -1.870127         3.432900         1.763388
 O        -2.707341         2.935444         0.784988
 C        -2.001327         1.652515         0.187214
 H        -0.227397         0.408506        -1.059969
 H         1.247177         2.315529         0.865378
 H         0.304803         3.415354        -0.379687
 H         0.005875         4.550277         1.916962
 H        -0.925834         2.686527         3.872889
 H         0.279183         0.836525         2.472277
 H        -1.378623         0.499363         2.272742
 H        -2.399191         4.324028         2.223156
 H        -2.678616         0.868724         0.505074
 H        -2.157897         1.920840        -0.813432
