19
Iteration:   192
 O        -0.216649         0.334943        -0.113852
 C        -0.681976         1.423861         0.662611
 C         0.209226         2.692129         0.673315
 C        -0.256217         3.384785         1.943660
 C        -1.209620         2.448606         2.722791
 C        -1.091324         1.079869         2.147428
 C        -1.783292         3.458455         1.822678
 O        -2.304670         3.061618         0.524625
 C        -1.925125         1.884259        -0.054303
 H         0.441038        -0.093798         0.450655
 H         1.254574         2.629933         0.523554
 H        -0.031917         3.362791        -0.247247
 H         0.309961         4.196251         2.527613
 H        -1.542991         2.617325         3.706189
 H        -0.404287         0.525280         2.700755
 H        -2.128357         0.589067         2.262711
 H        -2.362001         4.247837         2.162311
 H        -2.713489         1.151319         0.218055
 H        -1.844049         2.024860        -1.108318
