19
Iteration:  3702charge 0 multiplicity 1
 O        -0.000185         0.325510        -0.037713
 C        -0.776777         1.373714         0.677891
 C         0.107847         2.650776         0.435029
 C        -0.343250         3.618115         1.558867
 C        -0.853317         2.662137         2.625718
 C        -0.655908         1.193194         2.222812
 C        -1.847972         3.436669         1.862713
 O        -2.773994         2.768616         0.967124
 C        -2.144548         1.823451         0.040119
 H        -0.614589        -0.348238        -0.411648
 H         1.212450         2.426875         0.409307
 H         0.087936         3.143341        -0.574171
 H         0.269854         4.536815         1.544149
 H        -0.529505         2.860859         3.610376
 H         0.271709         0.819551         2.500026
 H        -1.399177         0.440598         2.591564
 H        -2.404436         4.341017         2.380666
 H        -2.918141         1.127809        -0.180159
 H        -1.657912         2.102204        -1.007518
