19
Iteration:  2716charge 0 multiplicity 1
 O        -0.076565         0.321595        -0.047443
 C        -0.723628         1.412932         0.627481
 C         0.138189         2.624372         0.590851
 C        -0.363467         3.481017         1.728782
 C        -1.095946         2.451838         2.676907
 C        -0.732012         1.104396         2.200362
 C        -1.830607         3.473899         1.748862
 O        -2.424654         3.119571         0.592494
 C        -2.161246         1.801894         0.236701
 H        -0.612892        -0.021191        -0.793611
 H         1.165433         2.394060         0.656553
 H         0.177416         3.109252        -0.441716
 H         0.321119         4.320685         1.977573
 H        -1.367158         2.570746         3.741258
 H         0.278543         0.775874         2.569892
 H        -1.433894         0.301638         2.487804
 H        -2.274732         4.452674         2.236853
 H        -2.924052         1.190106         0.795517
 H        -2.308253         1.706577        -0.875568
