19
Iteration:  3039charge 0 multiplicity 1
 O        -0.204278         0.278965        -0.053946
 C        -0.728105         1.359201         0.639232
 C         0.368240         2.516677         0.726012
 C        -0.366859         3.503905         1.532612
 C        -0.953512         2.633511         2.667893
 C        -0.802880         1.167266         2.127459
 C        -1.847470         3.503532         1.794057
 O        -2.761074         2.765686         0.930552
 C        -1.993321         2.029446        -0.013416
 H         0.265794         0.656484        -0.832498
 H         1.327693         2.276829         1.234517
 H         0.595692         2.737071        -0.391415
 H         0.055553         4.392442         1.835043
 H        -1.002576         2.991539         3.660607
 H        -0.014865         0.509509         2.562635
 H        -1.732389         0.599068         2.268810
 H        -2.190862         4.494419         2.121892
 H        -2.633455         1.341508        -0.630609
 H        -1.582103         2.767770        -0.732354
