19
Iteration:   798charge 0 multiplicity 1
 O        -0.284429         0.301560        -0.106378
 C        -0.627265         1.434314         0.652860
 C         0.315311         2.668006         0.802092
 C        -0.279152         3.525786         1.923741
 C        -1.158790         2.512967         2.723377
 C        -1.107052         1.063673         2.107711
 C        -1.741245         3.461775         1.752938
 O        -2.511567         2.926489         0.670836
 C        -1.858145         1.947147        -0.181317
 H         0.592413        -0.161210         0.028650
 H         1.352777         2.406299         1.149954
 H         0.449823         3.139619        -0.244814
 H         0.206469         4.388620         2.521500
 H        -1.320756         2.653601         3.760435
 H        -0.551047         0.267369         2.569113
 H        -2.208719         0.664886         2.047091
 H        -2.364687         4.158369         2.085920
 H        -2.640253         1.215693        -0.318226
 H        -1.537718         2.312292        -1.212978
