19
Iteration:  2877charge 0 multiplicity 1
 O        -0.097759         0.254408         0.075287
 C        -0.761171         1.332435         0.641577
 C         0.186051         2.690094         0.577476
 C        -0.302332         3.471935         1.712046
 C        -0.975672         2.545335         2.630418
 C        -0.817240         1.130270         2.105255
 C        -1.870298         3.423667         1.869646
 O        -2.564907         3.046073         0.718040
 C        -2.115912         1.892911         0.033561
 H        -0.148256         0.278848        -0.882798
 H         1.279734         2.369172         0.891646
 H         0.194159         3.082446        -0.396907
 H         0.384944         4.221566         2.099639
 H        -0.903021         2.677893         3.724729
 H         0.198989         0.742657         2.336478
 H        -1.415055         0.288238         2.402766
 H        -2.322698         4.458477         2.190892
 H        -2.970823         1.141946         0.010772
 H        -2.050050         2.148150        -1.104156
