19
Iteration:  3225charge 0 multiplicity 1
 O        -0.113166         0.400251        -0.127363
 C        -0.724764         1.403627         0.605894
 C         0.235446         2.640908         0.535355
 C        -0.320484         3.504879         1.665059
 C        -0.943285         2.618220         2.726616
 C        -0.961320         1.163215         2.188096
 C        -1.780025         3.474457         1.807930
 O        -2.626451         2.803572         0.888479
 C        -2.039494         1.826486        -0.017460
 H         0.078103        -0.364507         0.459636
 H         1.253453         2.209317         0.713727
 H         0.070176         3.162684        -0.456601
 H         0.190308         4.420651         2.168051
 H        -0.722061         2.984207         3.808754
 H        -0.179200         0.473158         2.578650
 H        -1.882715         0.608966         2.422599
 H        -2.182872         4.512535         1.957131
 H        -2.676964         0.902482        -0.202021
 H        -1.940301         2.304646        -0.968583
