19
Iteration:  3360
 O        -0.003558         0.382738        -0.162663
 C        -0.738475         1.384226         0.699879
 C         0.017631         2.678938         0.523838
 C        -0.289767         3.452766         1.723707
 C        -0.955402         2.540649         2.747204
 C        -0.737624         1.137281         2.178928
 C        -1.793984         3.497079         1.790172
 O        -2.569658         3.031516         0.684727
 C        -2.201380         1.703345         0.127308
 H         0.140837        -0.320047         0.542547
 H         1.043498         2.464251         0.415041
 H        -0.351201         3.216978        -0.376012
 H         0.266496         4.321745         1.886712
 H        -0.909747         2.762388         3.813387
 H         0.285437         0.676375         2.487725
 H        -1.500470         0.375247         2.487998
 H        -2.223326         4.464708         2.062702
 H        -2.948681         0.883950         0.520343
 H        -2.469211         1.858448        -0.895661
