19
Iteration:  4232
 O        -0.184109         0.290097        -0.104456
 C        -0.600403         1.405893         0.605997
 C         0.261965         2.671458         0.420379
 C        -0.287462         3.600809         1.617639
 C        -1.014506         2.638003         2.695323
 C        -0.603507         1.274205         2.058252
 C        -1.874691         3.491246         1.823650
 O        -2.754417         2.922190         0.834068
 C        -2.120411         1.604221         0.296860
 H        -0.611171        -0.505099         0.300339
 H         1.330872         2.402718         0.463634
 H         0.037410         3.211689        -0.527830
 H         0.267146         4.464710         1.741038
 H        -1.148492         2.698041         3.778411
 H         0.400560         1.102346         2.516632
 H        -1.320619         0.412132         2.238499
 H        -2.317366         4.216361         2.390863
 H        -2.739794         0.703184         0.733471
 H        -2.247450         1.729743        -0.732425
