19
Iteration:   589
 O        -0.225389         0.227618        -0.144208
 C        -0.692974         1.452700         0.695693
 C         0.397489         2.509169         0.865193
 C        -0.282745         3.497496         1.830433
 C        -1.196783         2.515104         2.727551
 C        -1.040185         1.120698         2.037329
 C        -1.814527         3.450884         1.749631
 O        -2.527968         3.008658         0.635488
 C        -1.929685         2.045819        -0.095369
 H         0.626127        -0.047517         0.216873
 H         1.313172         2.325532         1.334620
 H         0.641544         2.999289        -0.121001
 H         0.264052         4.430647         2.306751
 H        -1.377922         2.482943         3.810224
 H        -0.198798         0.542524         2.417054
 H        -1.930027         0.434032         2.328690
 H        -2.410221         4.246969         2.245719
 H        -2.623007         1.210202        -0.194092
 H        -1.775230         2.550091        -1.142881
