19
Iteration:  3383
 O        -0.067337         0.344161        -0.062929
 C        -0.725183         1.368821         0.689420
 C         0.085933         2.727343         0.426800
 C        -0.334675         3.567200         1.668896
 C        -0.972457         2.538721         2.663787
 C        -0.748507         1.161582         2.197582
 C        -1.844812         3.394094         1.852225
 O        -2.522947         3.051468         0.724965
 C        -2.099456         1.680166         0.142709
 H        -0.733092        -0.307250        -0.329978
 H         1.117978         2.496072         0.427919
 H        -0.183865         3.285918        -0.465037
 H         0.267474         4.341911         2.122179
 H        -0.811999         2.773002         3.770993
 H         0.278466         0.757381         2.563851
 H        -1.484085         0.335752         2.481439
 H        -2.494314         4.130858         2.403458
 H        -2.823476         0.847921         0.488008
 H        -2.241641         1.818075        -0.957033
