19
Iteration:  3467charge 0 multiplicity 1
 O        -0.110790         0.321984        -0.134615
 C        -0.644454         1.390819         0.628762
 C         0.181086         2.651867         0.459477
 C        -0.368309         3.573645         1.511872
 C        -0.837905         2.659285         2.721281
 C        -0.904020         1.230035         2.167445
 C        -1.831419         3.432696         1.901915
 O        -2.690798         2.748070         0.939891
 C        -2.054502         1.819800         0.055184
 H         0.313245        -0.276013         0.530360
 H         1.301954         2.494759         0.589064
 H         0.142603         3.170752        -0.539475
 H         0.154386         4.470338         1.739728
 H        -0.651519         2.855253         3.771279
 H        -0.088353         0.729570         2.611270
 H        -1.828495         0.763508         2.331886
 H        -2.413318         4.291662         2.323957
 H        -2.730575         1.011583         0.125774
 H        -2.094908         2.320432        -0.922338
