19
Iteration:  4619
 O        -0.323426         0.254312        -0.128222
 C        -0.697897         1.433061         0.665085
 C         0.314251         2.685506         0.559392
 C        -0.278932         3.678370         1.675213
 C        -0.920727         2.654516         2.738618
 C        -0.874147         1.209486         2.215435
 C        -1.781453         3.436294         1.750951
 O        -2.602489         2.750101         0.818242
 C        -2.070339         1.769319         0.047557
 H         0.579444         0.460778        -0.420216
 H         1.346088         2.224502         0.860306
 H         0.290348         3.113019        -0.427996
 H         0.171207         4.659443         1.825108
 H        -0.943114         2.809983         3.877979
 H        -0.166823         0.559986         2.643968
 H        -1.940555         0.687866         2.316471
 H        -2.431249         4.120939         2.374421
 H        -2.693503         0.841868        -0.047317
 H        -1.924072         2.103641        -1.070184
