19
Iteration:  1762charge 0 multiplicity 1
 O        -0.323196         0.250792        -0.121627
 C        -0.680112         1.439992         0.650421
 C         0.409223         2.486561         0.839466
 C        -0.310123         3.410916         1.920235
 C        -1.249188         2.462811         2.724576
 C        -0.887668         1.130802         2.128285
 C        -1.830932         3.428364         1.750119
 O        -2.531876         3.131547         0.566410
 C        -1.915830         2.009644        -0.137191
 H         0.595716         0.087125         0.125138
 H         1.242688         1.934914         1.458102
 H         0.803480         3.172994         0.072502
 H         0.192011         4.328427         2.171869
 H        -1.545426         2.600663         3.788189
 H         0.093734         0.786924         2.633970
 H        -1.685403         0.371128         2.348090
 H        -2.299978         4.469623         2.051765
 H        -2.788229         1.399894        -0.304053
 H        -1.593739         2.359200        -1.185431
