19
Iteration:   943
 O        -0.278913         0.359022        -0.145031
 C        -0.633938         1.380963         0.685360
 C         0.366600         2.522033         0.780895
 C        -0.320397         3.556032         1.844674
 C        -1.264363         2.414900         2.751197
 C        -0.928747         1.107190         2.176844
 C        -1.813443         3.393431         1.818054
 O        -2.515230         3.081621         0.542987
 C        -1.895442         1.960328        -0.103041
 H         0.493045        -0.021084         0.261071
 H         1.332350         2.167813         1.169911
 H         0.398029         3.025887        -0.186787
 H         0.217900         4.422062         1.983644
 H        -1.477776         2.514885         3.841942
 H        -0.039416         0.648955         2.656604
 H        -1.829642         0.494443         2.285549
 H        -2.477751         4.276640         2.294056
 H        -2.650129         1.226277        -0.233213
 H        -1.619831         2.237201        -1.099696
