19
Iteration:   407
 O        -0.144822         0.254715        -0.090086
 C        -0.700174         1.398848         0.609659
 C         0.320390         2.504574         0.775280
 C        -0.298934         3.402201         1.922055
 C        -1.238790         2.486906         2.720270
 C        -0.980491         1.041179         2.091487
 C        -1.865274         3.504709         1.796204
 O        -2.482659         3.233066         0.571137
 C        -2.000973         1.954678        -0.104085
 H         0.717959         0.159294         0.319991
 H         1.346793         2.150512         1.067709
 H         0.529399         3.077248        -0.079422
 H         0.428539         4.236281         2.379190
 H        -1.255586         2.604650         3.770455
 H        -0.009260         0.669910         2.534282
 H        -1.806039         0.430977         2.264415
 H        -2.337420         4.270420         2.365054
 H        -2.758118         1.102525        -0.029536
 H        -1.883815         2.040920        -1.232680
