19
Iteration:  1064
 O        -0.282501         0.306884        -0.174617
 C        -0.633561         1.486766         0.640570
 C         0.397086         2.642773         0.827306
 C        -0.289712         3.487173         1.896062
 C        -1.242163         2.508375         2.781958
 C        -0.958285         1.027532         2.127925
 C        -1.773416         3.458260         1.700463
 O        -2.585490         3.024212         0.588604
 C        -1.904844         1.912007        -0.060878
 H         0.576218         0.000484         0.244237
 H         1.363355         2.183709         1.200519
 H         0.565712         3.167355        -0.126033
 H         0.167138         4.291988         2.434051
 H        -1.567005         2.616551         3.769380
 H        -0.124590         0.340167         2.501182
 H        -1.913853         0.469388         2.124759
 H        -2.214222         4.437020         2.017272
 H        -2.447702         1.018341         0.171728
 H        -1.896955         1.966625        -1.134939
