19
Iteration:  3183
 O        -0.363845         0.185401        -0.091149
 C        -0.603799         1.420817         0.679540
 C         0.315912         2.752074         0.652912
 C        -0.384639         3.557117         1.752346
 C        -1.038521         2.509840         2.630217
 C        -0.665009         1.107619         2.100605
 C        -1.905542         3.476863         1.802878
 O        -2.565078         3.000640         0.665269
 C        -2.101524         1.795595         0.129417
 H         0.485427         0.456795        -0.520193
 H         1.309595         2.571882         0.997729
 H         0.437962         3.166153        -0.350452
 H         0.134958         4.580694         2.020528
 H        -0.893455         2.671817         3.745388
 H         0.363624         0.868178         2.550053
 H        -1.265454         0.238459         2.333558
 H        -2.540847         4.231619         2.356201
 H        -2.812304         1.013029         0.451170
 H        -2.003638         1.839185        -0.951658
