19
Iteration:  3040
 O        -0.211420         0.275966        -0.060677
 C        -0.723168         1.359483         0.638907
 C         0.361858         2.518153         0.724019
 C        -0.373093         3.507570         1.533207
 C        -0.958497         2.625626         2.668037
 C        -0.796427         1.161599         2.143228
 C        -1.839037         3.509726         1.801110
 O        -2.769661         2.763977         0.917506
 C        -1.987421         2.030240        -0.011375
 H         0.282976         0.643000        -0.838047
 H         1.374491         2.278015         1.228803
 H         0.606364         2.764049        -0.368549
 H         0.100537         4.391444         1.803385
 H        -0.983606         3.008062         3.668284
 H        -0.003593         0.527435         2.584681
 H        -1.700175         0.603677         2.300587
 H        -2.214946         4.462215         2.093952
 H        -2.650010         1.377957        -0.614439
 H        -1.570645         2.799120        -0.725568
