19
Iteration:  4317charge 0 multiplicity 1
 O        -0.037360         0.276539        -0.053625
 C        -0.631589         1.428624         0.595253
 C         0.244664         2.650236         0.460731
 C        -0.299704         3.597976         1.526858
 C        -0.966274         2.609285         2.642833
 C        -0.774958         1.224417         2.134752
 C        -1.786601         3.505619         1.775128
 O        -2.779181         2.864281         0.935808
 C        -2.150792         1.736386         0.254167
 H        -0.697772        -0.076471        -0.665831
 H         1.213062         2.220261         0.732447
 H         0.265822         3.142133        -0.578968
 H         0.204096         4.436763         1.807993
 H        -0.969705         2.797849         3.720567
 H         0.118592         0.775641         2.640269
 H        -1.545161         0.563608         2.332534
 H        -2.313266         4.242572         2.271915
 H        -2.532930         0.820918         0.574434
 H        -2.523684         1.852043        -0.824779
