19
Iteration:  1650
 O        -0.402688         0.306772        -0.243931
 C        -0.648980         1.376854         0.682976
 C         0.370377         2.601452         0.889543
 C        -0.369105         3.495072         1.929584
 C        -1.108584         2.519527         2.746050
 C        -0.995936         1.083608         2.170941
 C        -1.874899         3.462941         1.713679
 O        -2.431351         3.056484         0.535391
 C        -1.863025         1.898518        -0.040767
 H         0.381833        -0.180486        -0.007965
 H         1.421322         2.510917         1.294144
 H         0.364099         3.111354        -0.100390
 H         0.142772         4.374075         2.379475
 H        -1.347808         2.701316         3.751232
 H        -0.051160         0.511589         2.587462
 H        -1.828499         0.468053         2.338835
 H        -2.371322         4.257422         2.067626
 H        -2.490393         1.092571        -0.371067
 H        -1.235757         2.146167        -0.920493
