19
Iteration:   503charge 0 multiplicity 1
 O        -0.240073         0.272415        -0.132892
 C        -0.606906         1.405628         0.634715
 C         0.453256         2.557621         0.841647
 C        -0.296558         3.358467         1.890326
 C        -1.252070         2.491496         2.670438
 C        -0.979253         1.113785         2.155734
 C        -1.849619         3.441041         1.710386
 O        -2.597005         3.175578         0.610819
 C        -1.949197         1.975795        -0.059806
 H         0.515556        -0.121370         0.270249
 H         1.475745         2.111811         1.129371
 H         0.646145         3.157774        -0.135333
 H         0.151766         4.435088         2.279158
 H        -1.396891         2.477636         3.733276
 H        -0.107002         0.569045         2.594860
 H        -1.941623         0.553459         2.114141
 H        -2.230552         4.269523         2.277299
 H        -2.545392         1.102429        -0.214435
 H        -1.651240         2.214273        -1.027650
