19
Iteration:  1406
 O        -0.254282         0.374201        -0.280386
 C        -0.642025         1.388163         0.678293
 C         0.371865         2.520779         0.768509
 C        -0.322764         3.509237         1.898674
 C        -1.237489         2.484422         2.795020
 C        -0.968811         1.147445         2.257307
 C        -1.833633         3.469108         1.749458
 O        -2.460898         3.069400         0.531951
 C        -1.957793         1.881773        -0.019615
 H         0.486914        -0.221332         0.043691
 H         1.254448         2.049358         1.159501
 H         0.428495         3.000050        -0.200678
 H         0.121161         4.355939         2.261903
 H        -1.428454         2.524571         3.802854
 H        -0.162598         0.561725         2.824918
 H        -1.751823         0.412515         2.231836
 H        -2.378947         4.273522         2.267584
 H        -2.796821         1.133390        -0.108957
 H        -1.476424         2.069326        -1.055209
