19
Iteration:  3152
 O        -0.134028         0.319223        -0.098611
 C        -0.649535         1.412286         0.717769
 C         0.136545         2.722771         0.536987
 C        -0.275862         3.509159         1.857784
 C        -1.072277         2.504927         2.655244
 C        -0.753689         1.133734         2.164971
 C        -1.821376         3.457470         1.802198
 O        -2.467037         3.029417         0.581832
 C        -2.163417         1.716605         0.172031
 H        -0.803468         0.306362        -0.798551
 H         1.241460         2.343434         0.670623
 H        -0.075597         3.139925        -0.447481
 H         0.287705         4.492501         2.111008
 H        -1.120161         2.721142         3.745645
 H         0.193081         0.802059         2.680866
 H        -1.516304         0.375918         2.283388
 H        -2.492194         4.212918         2.318723
 H        -2.898184         1.018382         0.582720
 H        -2.224995         1.586162        -0.967245
