19
Iteration:   240charge 0 multiplicity 1
 O        -0.192410         0.295121        -0.139332
 C        -0.660160         1.405418         0.670747
 C         0.338660         2.526663         0.850747
 C        -0.282143         3.471684         1.856686
 C        -1.162238         2.480542         2.654618
 C        -1.010238         1.015806         2.110696
 C        -1.854799         3.446144         1.742108
 O        -2.514470         3.215842         0.571975
 C        -1.994799         1.917165        -0.028326
 H         0.671374        -0.019767         0.181373
 H         1.268225         2.125763         1.237092
 H         0.700063         2.992235         0.037603
 H         0.156682         4.344847         2.209045
 H        -1.261258         2.690844         3.777966
 H        -0.061033         0.606224         2.560067
 H        -1.824268         0.404096         2.310889
 H        -2.526860         4.220238         2.275482
 H        -2.819562         1.128734         0.085175
 H        -1.721283         2.235115        -1.099831
