19
Iteration:  1473charge 0 multiplicity 1
 O        -0.172470         0.260268        -0.061591
 C        -0.747700         1.371631         0.659660
 C         0.330640         2.675742         0.693376
 C        -0.330105         3.449620         1.919233
 C        -1.108100         2.517873         2.763037
 C        -1.216571         1.150812         2.008781
 C        -1.744475         3.540201         1.801882
 O        -2.492403         2.904233         0.708706
 C        -1.835538         1.959629        -0.144006
 H         0.740143         0.109128         0.125211
 H         1.320397         2.259627         0.825969
 H         0.146229         3.187101        -0.241427
 H         0.196273         4.265812         2.314129
 H        -0.905746         2.471499         3.890926
 H        -0.725634         0.352153         2.677633
 H        -2.191743         0.755622         1.932295
 H        -2.479536         4.385644         2.051953
 H        -2.497726         1.131887        -0.518656
 H        -1.376001         2.518077        -1.036832
