19
Iteration:  4845
 O        -0.198605         0.302444        -0.114442
 C        -0.691305         1.404782         0.629095
 C         0.323574         2.608560         0.527180
 C        -0.320276         3.551432         1.524976
 C        -0.899055         2.618195         2.652255
 C        -0.795592         1.199824         2.242413
 C        -1.816534         3.458848         1.818525
 O        -2.775250         2.851756         0.894904
 C        -2.133817         1.807431         0.097669
 H         0.762141         0.436962         0.080621
 H         1.297982         2.314195         1.058625
 H         0.704847         2.861157        -0.536048
 H        -0.076901         4.606417         1.658873
 H        -0.676800         2.863944         3.718655
 H         0.081099         0.559824         2.577716
 H        -1.674932         0.760411         2.526721
 H        -2.275039         4.396532         2.194894
 H        -2.809885         0.872666         0.029471
 H        -2.000632         2.123805        -0.904415
