19
Iteration:  1304charge 0 multiplicity 1
 O        -0.301260         0.318966        -0.215102
 C        -0.594518         1.479655         0.608570
 C         0.472749         2.610208         0.851269
 C        -0.303227         3.424029         1.862474
 C        -1.259915         2.529905         2.702101
 C        -0.997604         1.186701         2.173336
 C        -1.808503         3.422564         1.719096
 O        -2.518185         2.989942         0.595480
 C        -1.954786         1.914249         0.014745
 H         0.530965        -0.124411        -0.087193
 H         1.412582         2.288614         1.304579
 H         0.689225         3.013749        -0.160203
 H         0.177931         4.353439         2.468083
 H        -1.340547         2.523062         3.852975
 H        -0.385514         0.476807         2.784494
 H        -2.027829         0.574390         2.086267
 H        -2.345834         4.253814         2.232180
 H        -2.605164         0.966491         0.143875
 H        -1.880832         1.988487        -1.106136
