19
Iteration:  4398charge 0 multiplicity 1
 O        -0.105136         0.240666         0.050725
 C        -0.698335         1.447458         0.591649
 C         0.250840         2.684412         0.506203
 C        -0.319319         3.562735         1.532915
 C        -0.942289         2.628001         2.657085
 C        -0.775040         1.174251         2.067895
 C        -1.814595         3.454973         1.835142
 O        -2.675446         2.900060         0.872890
 C        -2.156303         1.738671         0.175216
 H        -0.121823         0.305146        -0.918578
 H         1.312302         2.322005         0.839452
 H         0.431432         3.200349        -0.470539
 H         0.185695         4.602562         1.692570
 H        -1.034527         2.867313         3.705515
 H         0.116359         0.668805         2.378738
 H        -1.734243         0.589923         2.317147
 H        -2.413270         4.243992         2.415393
 H        -2.669235         0.763223         0.521127
 H        -2.354518         1.952798        -0.846503
