19
Iteration:  2918
 O        -0.249264         0.350908        -0.214970
 C        -0.659742         1.420487         0.698002
 C         0.266840         2.689024         0.576599
 C        -0.294258         3.462641         1.828973
 C        -1.124513         2.539462         2.627633
 C        -0.863965         1.068103         2.167683
 C        -1.823168         3.506561         1.743926
 O        -2.387555         2.992668         0.524847
 C        -2.115128         1.700055         0.396599
 H         0.090105         0.744002        -1.059104
 H         1.294791         2.399310         0.752085
 H        -0.043303         3.403860        -0.265813
 H         0.117049         4.333478         2.429226
 H        -0.991039         2.780558         3.706776
 H         0.055816         0.908827         2.734976
 H        -1.636760         0.446438         2.628844
 H        -2.437169         4.417321         2.250002
 H        -2.889453         1.095827         0.841044
 H        -2.230474         1.391064        -0.664823
