19
Iteration:  2347
 O        -0.238273         0.258268        -0.101974
 C        -0.641670         1.418903         0.662134
 C         0.419596         2.507915         0.757925
 C        -0.306776         3.420401         1.745201
 C        -1.133122         2.571516         2.773098
 C        -0.913140         1.166731         2.148001
 C        -1.873441         3.456495         1.753493
 O        -2.600669         3.043608         0.651886
 C        -1.993267         1.931657        -0.008589
 H         0.111055         0.530144        -0.961078
 H         1.399447         2.020509         0.916652
 H         0.556074         3.061296        -0.182980
 H         0.124216         4.410727         2.132282
 H        -1.183667         2.777457         3.860558
 H        -0.079282         0.675848         2.682800
 H        -1.781642         0.448408         2.426025
 H        -2.267712         4.404210         2.165984
 H        -2.601295         0.959791        -0.007192
 H        -1.790191         2.254132        -1.009646
