19
Iteration:  2203
 O        -0.167834         0.204316         0.108343
 C        -0.675073         1.446555         0.576048
 C         0.437483         2.622673         0.767058
 C        -0.281351         3.473447         1.803037
 C        -1.178929         2.471805         2.672852
 C        -1.020883         1.112978         1.999710
 C        -1.818481         3.489970         1.792301
 O        -2.528282         3.042944         0.694893
 C        -2.013427         2.004567        -0.107209
 H        -0.636047        -0.158282        -0.649829
 H         1.316468         2.106934         1.093514
 H         0.685866         3.014818        -0.236211
 H         0.250031         4.246125         2.236658
 H        -1.325696         2.529016         3.725352
 H        -0.156356         0.730021         2.578231
 H        -1.858148         0.336139         2.085543
 H        -2.245972         4.321080         2.307040
 H        -2.750778         1.206743        -0.092311
 H        -1.762529         2.308793        -1.143559
