19
Iteration:  1786charge 0 multiplicity 1
 O        -0.304837         0.290617        -0.065092
 C        -0.703956         1.409666         0.675577
 C         0.319396         2.566766         0.785568
 C        -0.355851         3.438818         1.832532
 C        -1.224635         2.384021         2.722167
 C        -0.922462         1.023911         2.148822
 C        -1.850073         3.446748         1.821173
 O        -2.407071         3.212545         0.488471
 C        -1.909954         1.999224        -0.102747
 H         0.560167        -0.039339         0.297150
 H         1.274312         2.288038         1.253897
 H         0.499980         3.121039        -0.115059
 H         0.262690         4.107296         2.443729
 H        -1.375433         2.631042         3.778853
 H         0.110087         0.688507         2.481469
 H        -1.678620         0.199193         2.401704
 H        -2.360605         4.312610         2.163729
 H        -2.766656         1.332802        -0.106795
 H        -1.604047         2.142636        -1.184378
