19
Iteration:  1655
 O        -0.406798         0.294896        -0.227874
 C        -0.609328         1.363596         0.689490
 C         0.393345         2.593316         0.871979
 C        -0.386331         3.457552         1.918388
 C        -1.122408         2.521136         2.718854
 C        -0.981893         1.100161         2.139719
 C        -1.907544         3.442700         1.763585
 O        -2.451513         3.065351         0.548464
 C        -1.836959         1.927179        -0.051612
 H         0.390746        -0.221169         0.039205
 H         1.425254         2.548895         1.179218
 H         0.524136         3.074203        -0.098066
 H         0.084043         4.344948         2.291066
 H        -1.304376         2.692813         3.828191
 H        -0.167807         0.633137         2.650595
 H        -1.909226         0.466656         2.452022
 H        -2.366198         4.530706         2.042485
 H        -2.488117         1.062710        -0.375291
 H        -1.283212         2.293108        -0.957197
