19
Iteration:  2693charge 0 multiplicity 1
 O        -0.086234         0.317483        -0.212529
 C        -0.650051         1.431342         0.632472
 C         0.378560         2.585611         0.698065
 C        -0.275365         3.486247         1.809813
 C        -1.125732         2.527313         2.682057
 C        -0.841929         1.194290         2.115819
 C        -1.821101         3.548267         1.721890
 O        -2.615999         3.067230         0.612209
 C        -2.200665         1.659957         0.268423
 H        -0.850142        -0.136009        -0.566730
 H         1.381973         2.311865         0.900223
 H         0.613574         3.027781        -0.298738
 H         0.346982         4.349078         2.099328
 H        -0.966023         2.776235         3.715556
 H         0.120462         0.943776         2.668518
 H        -1.511598         0.361500         2.358151
 H        -2.365288         4.480904         2.188720
 H        -2.861306         1.081463         0.967184
 H        -2.466062         1.514702        -0.783300
