19
Iteration:   737
 O        -0.261870         0.334586        -0.089607
 C        -0.678954         1.414988         0.631031
 C         0.385758         2.613410         0.858145
 C        -0.318174         3.464381         1.910515
 C        -1.143644         2.448532         2.645083
 C        -0.994453         1.041274         2.032667
 C        -1.874601         3.503171         1.744412
 O        -2.500925         3.099386         0.572680
 C        -1.938401         1.914791        -0.048966
 H         0.546100        -0.039366         0.363916
 H         1.126212         1.980184         1.331800
 H         0.761898         2.921910        -0.066923
 H         0.076097         4.297987         2.434172
 H        -1.141621         2.496230         3.748523
 H        -0.009241         0.624039         2.412904
 H        -1.790709         0.396797         2.220495
 H        -2.233763         4.364000         2.311679
 H        -2.734265         1.156656         0.097801
 H        -1.884753         2.118008        -1.074418
