19
Iteration:    49
 O        -0.243459         0.269667        -0.147950
 C        -0.660653         1.455707         0.632949
 C         0.430620         2.483056         0.817086
 C        -0.297482         3.406695         1.865403
 C        -1.292916         2.535814         2.747208
 C        -1.034054         1.130236         2.084955
 C        -1.781294         3.545475         1.742373
 O        -2.576014         3.002664         0.691046
 C        -1.891905         2.008574        -0.125427
 H         0.615659        -0.068327         0.239433
 H         1.392669         2.067384         1.081913
 H         0.649314         2.985992        -0.194065
 H         0.288118         4.206251         2.392756
 H        -1.244742         2.649060         3.852645
 H        -0.037504         0.814006         2.405507
 H        -1.822388         0.265048         2.222312
 H        -2.308821         4.456284         2.184982
 H        -2.640396         1.101543        -0.103394
 H        -1.690792         2.438712        -1.155498
