19
Iteration:  3670
 O        -0.264161         0.334192        -0.229543
 C        -0.627629         1.481350         0.616613
 C         0.313607         2.696348         0.525573
 C        -0.302178         3.568408         1.554750
 C        -0.932583         2.667171         2.661516
 C        -0.690054         1.263289         2.159638
 C        -1.885541         3.431851         1.842207
 O        -2.759070         2.758498         0.903326
 C        -2.056157         1.682546         0.229254
 H        -0.067539        -0.398669         0.396861
 H         1.377017         2.410834         0.865127
 H         0.235728         3.176639        -0.478260
 H         0.057668         4.600412         1.656347
 H        -0.793095         2.876304         3.686968
 H         0.205439         0.926978         2.602093
 H        -1.643085         0.665755         2.269332
 H        -2.464471         4.346317         2.295905
 H        -2.594424         0.770192         0.577068
 H        -2.014446         1.706731        -0.934041
