19
Iteration:  3620charge 0 multiplicity 1
 O        -0.157377         0.307065        -0.052593
 C        -0.703382         1.338622         0.679324
 C         0.093304         2.623468         0.333034
 C        -0.416718         3.570484         1.591106
 C        -0.872163         2.588517         2.720724
 C        -0.643194         1.198725         2.210197
 C        -1.913175         3.405538         1.907615
 O        -2.615037         3.009500         0.764288
 C        -2.097544         1.722866         0.174044
 H         0.599437         0.624646        -0.543113
 H         1.126161         2.505363         0.524252
 H        -0.271854         3.008507        -0.605024
 H         0.200610         4.447446         1.912621
 H        -0.618663         2.889562         3.808750
 H         0.428636         0.792793         2.544571
 H        -1.216213         0.328045         2.634936
 H        -2.538691         4.200979         2.313509
 H        -2.992313         1.042156         0.360755
 H        -1.962839         1.772498        -0.931322
