19
Iteration:   876charge 0 multiplicity 1
 O        -0.230509         0.372142        -0.106247
 C        -0.624060         1.512882         0.564283
 C         0.391280         2.631396         0.766377
 C        -0.322985         3.370570         1.817178
 C        -1.175292         2.502315         2.773099
 C        -1.133878         1.065284         2.196631
 C        -1.813252         3.485268         1.808083
 O        -2.449496         2.956555         0.607066
 C        -1.911564         1.924552        -0.127677
 H         0.613844        -0.036248         0.190518
 H         1.349528         2.276952         1.194728
 H         0.381653         3.264157        -0.168469
 H         0.075480         4.281233         2.262654
 H        -1.167083         2.469025         3.926583
 H        -0.503585         0.367519         2.756527
 H        -2.218885         0.746678         2.106905
 H        -2.429247         4.410869         2.149837
 H        -2.573424         1.081103        -0.015424
 H        -1.801396         2.033276        -1.204509
