19
Iteration:  2468charge 0 multiplicity 1
 O        -0.260334         0.333035        -0.129951
 C        -0.715616         1.415886         0.676300
 C         0.329547         2.555165         0.732943
 C        -0.265057         3.502008         1.745754
 C        -1.120555         2.525558         2.697594
 C        -0.915395         1.146441         2.173977
 C        -1.783769         3.495987         1.715483
 O        -2.527588         3.024664         0.615807
 C        -2.040720         1.774397         0.122096
 H         0.507633         0.762544        -0.578093
 H         1.364378         2.249249         1.007550
 H         0.380598         3.086058        -0.234228
 H         0.185377         4.408146         1.994538
 H        -1.265238         2.680025         3.721385
 H         0.014951         0.741115         2.607727
 H        -1.665109         0.346558         2.417539
 H        -2.280957         4.310170         2.241330
 H        -2.730017         0.884869         0.402555
 H        -2.003396         1.880910        -0.931978
