19
Iteration:  4344
 O        -0.246862         0.367821        -0.154158
 C        -0.699623         1.379802         0.716079
 C         0.165154         2.656468         0.488013
 C        -0.395880         3.640367         1.520851
 C        -0.822841         2.652753         2.755493
 C        -0.670486         1.221707         2.264326
 C        -1.795393         3.443446         1.846462
 O        -2.661451         2.819207         0.814260
 C        -2.074850         1.713348         0.032752
 H        -0.429018        -0.515133         0.193555
 H         1.178800         2.213528         0.719917
 H         0.049512         2.978382        -0.532403
 H         0.066513         4.614623         2.001575
 H        -0.707616         2.882259         3.813043
 H         0.261935         0.784378         2.605857
 H        -1.487161         0.485635         2.722792
 H        -2.448037         4.368746         2.144720
 H        -2.674586         0.676117         0.010135
 H        -1.984609         2.085398        -0.934806
