19
Iteration:   353
 O        -0.268282         0.279135        -0.227994
 C        -0.646161         1.408986         0.641356
 C         0.395385         2.591682         0.791753
 C        -0.296362         3.410556         1.875170
 C        -1.240886         2.559005         2.780518
 C        -1.129233         1.163254         2.130844
 C        -1.819919         3.484613         1.755653
 O        -2.485790         2.944147         0.680548
 C        -1.859333         1.974008        -0.102012
 H         0.496761        -0.136782         0.148105
 H         1.434814         2.384145         1.084828
 H         0.489052         3.140312        -0.111129
 H         0.399394         4.194726         2.372944
 H        -1.214199         2.578166         3.823076
 H        -0.464843         0.510526         2.756457
 H        -2.062053         0.665618         2.264804
 H        -2.172721         4.435787         1.996931
 H        -2.564780         1.146711        -0.268360
 H        -1.358327         2.458982        -0.999584
