19
Iteration:  1845
 O        -0.087738         0.385426        -0.100838
 C        -0.740544         1.375563         0.670068
 C         0.264125         2.495231         0.818294
 C        -0.277451         3.405106         1.920359
 C        -1.157751         2.483164         2.689306
 C        -1.070242         1.087049         2.077947
 C        -1.757961         3.470401         1.763907
 O        -2.475586         3.148552         0.506057
 C        -2.013289         1.944390        -0.050413
 H         0.489565        -0.082596         0.529611
 H         1.223356         2.110121         0.973568
 H         0.310512         3.018300        -0.162317
 H         0.459289         4.082983         2.383232
 H        -1.417884         2.603213         3.755373
 H        -0.246815         0.498440         2.491740
 H        -2.042135         0.557006         2.261259
 H        -2.217488         4.331856         2.370168
 H        -2.878771         1.237593         0.133638
 H        -1.858229         2.036101        -1.109707
