19
Iteration:  3063
 O        -0.361929         0.190315        -0.146045
 C        -0.654603         1.405718         0.666916
 C         0.356003         2.624880         0.590271
 C        -0.326350         3.499992         1.682937
 C        -0.998307         2.631814         2.704515
 C        -0.801167         1.238232         2.245756
 C        -1.926485         3.390705         1.822548
 O        -2.696184         2.843321         0.836092
 C        -1.870969         1.982195        -0.037918
 H         0.416294         0.373881        -0.674671
 H         1.496905         2.375228         0.832980
 H         0.379424         2.893626        -0.491085
 H        -0.039034         4.483752         2.040132
 H        -1.088836         2.914354         3.786569
 H         0.167835         0.843543         2.633071
 H        -1.476291         0.469752         2.519010
 H        -2.391724         4.215395         2.283253
 H        -2.426716         1.073787        -0.290783
 H        -1.692718         2.583249        -0.977749
