19
Iteration:  1082charge 0 multiplicity 1
 O        -0.186810         0.361879        -0.223049
 C        -0.672357         1.346243         0.664733
 C         0.361264         2.581383         0.867828
 C        -0.318054         3.438677         1.876132
 C        -1.129852         2.498886         2.671926
 C        -0.987364         1.141703         2.196184
 C        -1.884599         3.458191         1.755864
 O        -2.512175         3.080425         0.577974
 C        -1.980418         1.883429        -0.040823
 H         0.529941        -0.194069         0.164607
 H         1.267475         2.138389         1.260369
 H         0.478671         3.047108        -0.125826
 H         0.155430         4.321921         2.155713
 H        -1.278031         2.677641         3.793590
 H        -0.142550         0.756611         2.713058
 H        -1.892113         0.460755         2.248322
 H        -2.439939         4.237852         2.386987
 H        -2.840516         1.176408        -0.313850
 H        -1.552485         2.181618        -1.077962
