19
Iteration:  1591charge 0 multiplicity 1
 O        -0.026574         0.256455        -0.050197
 C        -0.655556         1.336495         0.587113
 C         0.232372         2.684574         0.702897
 C        -0.281338         3.425140         1.879887
 C        -1.233880         2.430978         2.612740
 C        -1.075273         0.996653         2.123074
 C        -1.778221         3.514363         1.829918
 O        -2.402040         3.271546         0.544495
 C        -2.082175         1.833634         0.028764
 H         0.760564         0.032414         0.528552
 H         1.330145         2.366100         0.991118
 H         0.131110         3.207346        -0.270615
 H         0.267963         4.171930         2.412097
 H        -1.666435         2.405396         3.694922
 H        -0.295505         0.441214         2.603210
 H        -1.988036         0.318050         2.008113
 H        -2.182005         4.488052         2.432414
 H        -3.029939         1.343182         0.251239
 H        -2.203402         2.179707        -0.948041
