19
Iteration:  2609
 O        -0.131720         0.284954         0.053097
 C        -0.641178         1.493442         0.520597
 C         0.434096         2.610915         0.580942
 C        -0.307564         3.455493         1.608673
 C        -1.030117         2.581837         2.668776
 C        -1.040131         1.227825         2.031534
 C        -1.823659         3.426883         1.813794
 O        -2.690344         2.795806         0.965525
 C        -1.979582         1.991769        -0.029741
 H        -0.694440        -0.504545         0.260332
 H         1.360382         2.289475         1.103559
 H         0.559548         3.074181        -0.490720
 H         0.194258         4.395980         1.922227
 H        -0.911058         2.879114         3.762289
 H        -0.244997         0.593276         2.373405
 H        -2.000491         0.662438         2.087917
 H        -2.215522         4.471086         2.251222
 H        -2.537596         1.035594         0.013227
 H        -1.930704         2.407618        -1.113246
