19
Iteration:  2676
 O        -0.194748         0.414946        -0.208425
 C        -0.686219         1.370644         0.686735
 C         0.288563         2.601400         0.711358
 C        -0.271973         3.534744         1.722769
 C        -1.060719         2.613273         2.640957
 C        -0.813773         1.093480         2.169308
 C        -1.773449         3.504556         1.698293
 O        -2.601865         2.955931         0.673320
 C        -2.059335         1.741305         0.204375
 H        -0.828279        -0.310981        -0.235488
 H         1.278247         2.155599         1.090446
 H         0.536301         3.158465        -0.245820
 H         0.241524         4.395637         2.176408
 H        -1.368919         2.872283         3.722663
 H         0.017549         0.590667         2.632552
 H        -1.745492         0.572127         2.444395
 H        -2.326256         4.351114         2.102543
 H        -2.673800         0.876858         0.567971
 H        -2.089297         1.954885        -0.912934
