19
Iteration:  4058charge 0 multiplicity 1
 O        -0.049192         0.244973         0.079443
 C        -0.673872         1.430067         0.572070
 C         0.165868         2.715527         0.412827
 C        -0.322574         3.627682         1.561046
 C        -0.815395         2.613366         2.593332
 C        -0.654665         1.273719         2.078762
 C        -1.858951         3.453309         1.836566
 O        -2.727341         2.837435         0.920319
 C        -2.242215         1.696898         0.198788
 H        -0.654031        -0.200917        -0.562633
 H         1.242471         2.560190         0.615788
 H         0.051840         3.144657        -0.556447
 H         0.194892         4.523694         1.778298
 H        -0.709668         2.702731         3.690825
 H         0.160439         0.796540         2.511147
 H        -1.490280         0.516995         2.291474
 H        -2.498507         4.152752         2.485547
 H        -2.901800         0.886492         0.437343
 H        -2.375830         1.927944        -0.922608
