19
Iteration:   597
 O        -0.269430         0.246215        -0.198820
 C        -0.687353         1.414250         0.629827
 C         0.351152         2.563705         0.867079
 C        -0.317450         3.498200         1.883304
 C        -1.126993         2.466999         2.794117
 C        -1.020613         1.135265         2.160375
 C        -1.835299         3.499125         1.752141
 O        -2.549259         3.047227         0.593968
 C        -1.859479         1.967283        -0.126918
 H         0.568695        -0.087818         0.196206
 H         1.337286         2.087967         1.222166
 H         0.657089         2.990327        -0.092685
 H         0.160757         4.239702         2.305241
 H        -1.213997         2.692146         3.834414
 H        -0.174017         0.619542         2.568520
 H        -1.993596         0.601237         2.234267
 H        -2.434596         4.246549         2.175457
 H        -2.530901         1.089204        -0.333871
 H        -1.565170         2.349036        -1.162861
