19
Iteration:  1848
 O        -0.096999         0.368995        -0.099883
 C        -0.750741         1.373549         0.673080
 C         0.265142         2.513694         0.840251
 C        -0.263423         3.417969         1.898321
 C        -1.146449         2.464379         2.703126
 C        -1.065930         1.062132         2.086766
 C        -1.790752         3.473089         1.738967
 O        -2.487644         3.178378         0.517446
 C        -2.003957         1.950824        -0.060512
 H         0.515691        -0.097716         0.524285
 H         1.343886         2.102214         0.999838
 H         0.339195         2.944173        -0.200169
 H         0.456339         4.087966         2.336814
 H        -1.434251         2.549310         3.763044
 H        -0.181405         0.554736         2.546445
 H        -1.968357         0.547488         2.205480
 H        -2.232090         4.318016         2.388837
 H        -2.817559         1.171221         0.122411
 H        -1.825916         2.065746        -1.143527
