19
Iteration:  4371charge 0 multiplicity 1
 O        -0.314967         0.194906        -0.053589
 C        -0.646550         1.378386         0.657780
 C         0.221647         2.737170         0.470870
 C        -0.348275         3.528087         1.619826
 C        -0.924327         2.657550         2.648197
 C        -0.651172         1.234401         2.142413
 C        -1.872935         3.442687         1.809026
 O        -2.672088         2.858557         0.861408
 C        -2.069875         1.781056         0.128567
 H         0.631175        -0.022580         0.023222
 H         1.268432         2.554740         0.462719
 H        -0.035161         3.283139        -0.468629
 H         0.024876         4.411739         2.008605
 H        -0.926777         2.858156         3.741033
 H         0.372652         0.931012         2.522406
 H        -1.343377         0.553376         2.517717
 H        -2.353616         4.299984         2.144671
 H        -2.674983         0.922724         0.104611
 H        -1.916544         2.288716        -0.901556
