19
Iteration:   462charge 0 multiplicity 1
 O        -0.194021         0.325699        -0.188167
 C        -0.686598         1.399113         0.685385
 C         0.277838         2.600137         0.755998
 C        -0.353845         3.398385         1.961527
 C        -1.135037         2.469512         2.726419
 C        -1.045782         1.109115         2.123316
 C        -1.818346         3.450174         1.791729
 O        -2.390122         3.149632         0.495892
 C        -1.943193         1.873154        -0.031431
 H         0.390201        -0.265358         0.365132
 H         1.218706         2.184031         1.195424
 H         0.337883         3.190003        -0.142304
 H         0.272045         4.285499         2.412262
 H        -1.333253         2.623312         3.796449
 H        -0.241609         0.566771         2.700575
 H        -1.989053         0.678780         2.221340
 H        -2.458283         4.259257         2.250184
 H        -2.903267         1.218269         0.031982
 H        -1.715248         2.122383        -1.128238
