19
Iteration:  4935charge 0 multiplicity 1
 O        -0.208234         0.248402        -0.166254
 C        -0.682237         1.365348         0.652077
 C         0.242853         2.635146         0.559551
 C        -0.396796         3.591095         1.551603
 C        -0.970653         2.606428         2.690081
 C        -0.649029         1.158338         2.203936
 C        -1.872785         3.445681         1.810535
 O        -2.672599         2.964619         0.811310
 C        -2.110398         1.808507         0.124203
 H         0.371200        -0.231383         0.452369
 H         1.300749         2.584826         0.890414
 H         0.280946         2.952477        -0.539962
 H         0.109865         4.505490         1.914428
 H        -0.859442         2.910931         3.719725
 H         0.323651         0.810181         2.618106
 H        -1.365789         0.513385         2.597805
 H        -2.202632         4.374061         2.296953
 H        -2.701483         0.923300         0.356487
 H        -2.138175         1.978062        -0.941918
