19
Iteration:   279charge 0 multiplicity 1
 O        -0.340261         0.263828        -0.202274
 C        -0.678801         1.375990         0.665197
 C         0.408052         2.632544         0.852539
 C        -0.261918         3.452714         1.935950
 C        -1.206470         2.547400         2.676191
 C        -1.041062         1.122654         2.133552
 C        -1.802735         3.499135         1.740347
 O        -2.553992         2.961511         0.643134
 C        -1.824246         1.959104        -0.099797
 H         0.556924        -0.063230         0.084579
 H         1.438591         2.193825         0.978513
 H         0.252542         3.233580        -0.180378
 H         0.263739         4.271964         2.511845
 H        -1.237990         2.831682         3.710839
 H        -0.283664         0.578482         2.717472
 H        -1.996111         0.416143         2.186935
 H        -2.199315         4.342073         2.255044
 H        -2.536889         1.222887        -0.409811
 H        -1.305651         2.348680        -0.967125
