19
Iteration:  1679
 O        -0.241196         0.231005        -0.055262
 C        -0.635615         1.486431         0.592690
 C         0.417428         2.510676         0.771338
 C        -0.327914         3.445280         1.811029
 C        -1.253714         2.445724         2.719019
 C        -1.035579         1.089798         2.089455
 C        -1.788174         3.483125         1.734262
 O        -2.592546         3.065993         0.698399
 C        -1.877427         2.066919        -0.099956
 H         0.515902        -0.093022         0.510612
 H         1.388707         2.247962         1.226979
 H         0.748805         3.015520        -0.162727
 H         0.313269         4.212260         2.309787
 H        -1.459342         2.757818         3.788457
 H        -0.216347         0.566111         2.466549
 H        -1.862820         0.323024         2.024092
 H        -2.385590         4.216261         2.317933
 H        -2.520456         1.210814        -0.419742
 H        -1.412542         2.515739        -0.975152
