19
Iteration:  3881
 O        -0.077049         0.414662        -0.214013
 C        -0.676086         1.383419         0.704997
 C         0.203510         2.600496         0.488147
 C        -0.358353         3.571721         1.478402
 C        -0.923472         2.698551         2.624909
 C        -0.573776         1.240674         2.250089
 C        -1.875867         3.440918         1.805477
 O        -2.744877         2.853204         0.943919
 C        -2.188538         1.642113         0.237372
 H        -0.780549        -0.286161        -0.236258
 H         1.374237         2.241661         0.491005
 H        -0.021766         2.820595        -0.567432
 H         0.182766         4.520337         1.777882
 H        -0.838887         2.891212         3.679018
 H         0.422443         1.198991         2.545025
 H        -1.293495         0.421924         2.595968
 H        -2.353602         4.326794         2.189628
 H        -2.825393         0.832555         0.501231
 H        -2.235584         1.871925        -0.927639
