19
Iteration:   250charge 0 multiplicity 1
 O        -0.285733         0.323677        -0.189270
 C        -0.679494         1.413712         0.680225
 C         0.415917         2.522866         0.857337
 C        -0.367468         3.466484         1.801597
 C        -1.251376         2.474018         2.752992
 C        -0.952738         1.120730         2.117411
 C        -1.795487         3.413021         1.784224
 O        -2.489810         3.128296         0.549705
 C        -1.916858         1.922850        -0.009043
 H         0.613874         0.100174         0.171680
 H         1.282717         2.064896         1.275750
 H         0.548303         2.970659        -0.072763
 H         0.065253         4.323487         2.118804
 H        -1.345192         2.598433         3.885362
 H        -0.139752         0.603783         2.629564
 H        -1.812633         0.516397         2.147216
 H        -2.132571         4.402256         2.250563
 H        -2.749309         1.171304        -0.126284
 H        -1.590732         2.076096        -1.077752
