19
Iteration:  4772charge 0 multiplicity 1
 O        -0.081368         0.320854        -0.074656
 C        -0.716683         1.406486         0.632076
 C         0.088040         2.714529         0.498567
 C        -0.343106         3.580845         1.675205
 C        -0.853756         2.594729         2.703782
 C        -0.790859         1.173990         2.159532
 C        -1.822065         3.467155         1.833846
 O        -2.545322         3.000344         0.672284
 C        -2.119888         1.610799         0.223041
 H        -0.835642        -0.230900        -0.365408
 H         1.082292         2.395507         0.638768
 H         0.072823         3.142187        -0.470728
 H         0.215792         4.444947         2.097960
 H        -0.923164         2.580700         3.766766
 H         0.013581         0.592292         2.561043
 H        -1.814248         0.592133         2.404539
 H        -2.347568         4.338077         2.200226
 H        -2.799716         0.918886         0.613970
 H        -2.158107         1.569294        -0.927411
