19
Iteration:  1797
 O        -0.267347         0.259009        -0.129359
 C        -0.663796         1.390528         0.685966
 C         0.280771         2.654227         0.742225
 C        -0.351992         3.396879         1.975837
 C        -1.192558         2.462048         2.669068
 C        -0.973982         1.035353         2.136589
 C        -1.859551         3.506661         1.738434
 O        -2.375212         3.206250         0.513188
 C        -1.918058         1.910646         0.002017
 H         0.508597        -0.075575         0.349309
 H         1.234926         2.134955         0.954861
 H         0.389203         3.129946        -0.212726
 H         0.247020         4.248484         2.325323
 H        -1.284767         2.424812         3.748659
 H        -0.297528         0.440004         2.798248
 H        -1.973132         0.449091         2.044721
 H        -2.350326         4.192339         2.344339
 H        -2.719489         1.191613        -0.084355
 H        -1.556518         2.210895        -1.025207
