19
Iteration:  4504
 O        -0.157593         0.261761        -0.053020
 C        -0.711785         1.363303         0.683548
 C         0.172679         2.672350         0.488761
 C        -0.314669         3.523390         1.633724
 C        -0.983927         2.587484         2.724601
 C        -0.740415         1.125737         2.202832
 C        -1.842656         3.527480         1.797441
 O        -2.583882         2.986105         0.754838
 C        -2.075602         1.723955         0.122982
 H        -0.440374         0.342641        -0.983088
 H         1.162862         2.481357         0.648156
 H        -0.044297         3.149222        -0.504134
 H         0.270424         4.403288         2.103803
 H        -0.995596         2.860631         3.788807
 H         0.241639         0.831887         2.709838
 H        -1.412217         0.385955         2.532472
 H        -2.392280         4.477351         2.164593
 H        -2.775107         0.913744         0.287187
 H        -2.025074         1.957012        -1.021900
