19
Iteration:   262
 O        -0.368197         0.359891        -0.186673
 C        -0.611736         1.436366         0.655296
 C         0.380702         2.559970         0.783150
 C        -0.301487         3.395551         1.847393
 C        -1.243536         2.475629         2.784185
 C        -1.009621         1.114269         2.217410
 C        -1.845472         3.517514         1.734114
 O        -2.457252         2.996853         0.589966
 C        -1.854401         1.961543        -0.083223
 H         0.499921        -0.084890        -0.109065
 H         1.321527         2.309961         1.242903
 H         0.689800         2.995046        -0.083424
 H         0.242442         4.191347         2.271409
 H        -1.496875         2.534037         3.896801
 H        -0.121646         0.626865         2.697439
 H        -1.790142         0.437210         2.273657
 H        -2.447411         4.459114         2.042242
 H        -2.476848         1.021203        -0.010237
 H        -1.626845         2.333941        -1.146767
