19
Iteration:   790
 O        -0.234856         0.298205        -0.162096
 C        -0.660539         1.364880         0.638408
 C         0.294846         2.711302         0.803505
 C        -0.305775         3.480155         1.869587
 C        -1.188586         2.513912         2.785598
 C        -1.155792         1.105196         2.119455
 C        -1.730447         3.541589         1.796953
 O        -2.490667         2.913419         0.641081
 C        -1.842901         1.900784        -0.161960
 H         0.624187        -0.062491         0.240455
 H         1.264052         2.287908         0.970362
 H         0.431570         3.161074        -0.187920
 H         0.376256         4.115379         2.460367
 H        -1.180353         2.707173         3.890768
 H        -0.497628         0.358631         2.594928
 H        -2.088123         0.609353         2.032234
 H        -2.309808         4.368614         2.328973
 H        -2.661509         1.163344        -0.357153
 H        -1.515860         2.547853        -1.065451
