19
Iteration:  4673charge 0 multiplicity 1
 O        -0.211925         0.231037        -0.025262
 C        -0.666403         1.367956         0.627935
 C         0.188028         2.690515         0.514115
 C        -0.355031         3.531445         1.632838
 C        -0.952940         2.555068         2.668513
 C        -0.776102         1.181074         2.229953
 C        -1.785881         3.470634         1.757226
 O        -2.678770         2.913199         0.823023
 C        -2.070771         1.840012         0.036233
 H         0.719893         0.344681        -0.222131
 H         1.221840         2.434840         0.590276
 H         0.062223         3.237102        -0.392915
 H         0.240187         4.367591         2.035968
 H        -0.945364         2.665282         3.792102
 H         0.145833         0.791378         2.619378
 H        -1.596847         0.474560         2.718679
 H        -2.148937         4.415091         2.277234
 H        -2.744591         0.983771        -0.011136
 H        -1.916476         2.387143        -0.975428
