19
Iteration:   791
 O        -0.243531         0.299956        -0.153347
 C        -0.652270         1.370624         0.640299
 C         0.293314         2.713997         0.804659
 C        -0.305994         3.491364         1.877620
 C        -1.187193         2.518986         2.777251
 C        -1.152343         1.097099         2.118286
 C        -1.714679         3.527437         1.788879
 O        -2.495010         2.911598         0.642487
 C        -1.842833         1.904563        -0.170813
 H         0.609330        -0.078092         0.199546
 H         1.272710         2.306798         0.973769
 H         0.451495         3.123172        -0.168812
 H         0.334736         4.112307         2.463459
 H        -1.194644         2.704946         3.899480
 H        -0.509049         0.309688         2.590520
 H        -2.068358         0.622703         2.034173
 H        -2.354354         4.372194         2.337908
 H        -2.686450         1.177824        -0.337547
 H        -1.530069         2.531909        -1.063047
