19
Iteration:  3254charge 0 multiplicity 1
 O        -0.051662         0.272801        -0.041746
 C        -0.619083         1.384419         0.560566
 C         0.329747         2.664313         0.556495
 C        -0.323557         3.598133         1.645941
 C        -0.916198         2.613533         2.648156
 C        -1.004643         1.231299         2.045844
 C        -1.822086         3.459158         1.881932
 O        -2.703648         2.772735         0.957478
 C        -2.042570         1.871058         0.039586
 H        -0.830538        -0.320352        -0.198738
 H         1.402457         2.248892         0.657940
 H         0.258744         3.122794        -0.449188
 H         0.068574         4.503403         1.977031
 H        -0.807693         2.912075         3.691785
 H        -0.456511         0.427300         2.505862
 H        -2.064887         0.868581         2.164103
 H        -2.309738         4.340208         2.265113
 H        -2.551050         0.904024        -0.066521
 H        -2.067392         2.454257        -0.935851
