19
Iteration:  1607
 O        -0.007883         0.257076        -0.071951
 C        -0.681408         1.398772         0.637288
 C         0.276937         2.567252         0.718663
 C        -0.335494         3.334517         1.885318
 C        -1.273594         2.415476         2.710383
 C        -1.061881         1.066843         2.006557
 C        -1.805365         3.577790         1.752729
 O        -2.446089         3.232063         0.556032
 C        -2.069860         1.958059         0.075619
 H         0.776541         0.108458         0.492931
 H         1.288838         2.238060         0.766453
 H         0.431637         3.187578        -0.171017
 H         0.341871         4.060986         2.410642
 H        -1.160751         2.586877         3.736258
 H        -0.201550         0.487745         2.652266
 H        -1.881432         0.388800         2.082675
 H        -2.326815         4.316936         2.193229
 H        -2.738339         1.181132         0.520696
 H        -2.090328         1.859375        -1.083068
