19
Iteration:  2671charge 0 multiplicity 1
 O        -0.210925         0.430045        -0.198758
 C        -0.701128         1.382992         0.713629
 C         0.296677         2.592438         0.662852
 C        -0.296148         3.548511         1.710232
 C        -1.078435         2.596386         2.705697
 C        -0.822244         1.089268         2.183574
 C        -1.767284         3.475844         1.708230
 O        -2.582221         2.951075         0.693460
 C        -2.037373         1.747796         0.145403
 H        -0.778289        -0.381960        -0.146067
 H         1.258855         2.266497         0.969738
 H         0.605565         3.050663        -0.289703
 H         0.231304         4.455630         2.016583
 H        -1.230786         3.026178         3.661760
 H         0.024654         0.574909         2.709377
 H        -1.717579         0.486019         2.410588
 H        -2.349677         4.333279         2.157112
 H        -2.773679         0.947143         0.329118
 H        -1.937926         2.007493        -0.899131
