19
Iteration:  4505
 O        -0.153208         0.265049        -0.064562
 C        -0.709594         1.360699         0.691358
 C         0.161722         2.666661         0.482791
 C        -0.314946         3.519664         1.645597
 C        -0.985409         2.600483         2.721346
 C        -0.738220         1.125940         2.207744
 C        -1.843704         3.537807         1.790063
 O        -2.579681         2.978580         0.758386
 C        -2.067507         1.727185         0.129701
 H        -0.478403         0.319848        -0.976590
 H         1.170345         2.463372         0.627355
 H        -0.086349         3.131343        -0.510981
 H         0.265285         4.398316         2.115761
 H        -1.024139         2.816851         3.777289
 H         0.214308         0.811161         2.697337
 H        -1.452713         0.384206         2.535178
 H        -2.380497         4.464613         2.137859
 H        -2.754992         0.931397         0.295761
 H        -2.003873         1.973562        -1.021632
