19
Iteration:  3306
 O        -0.337189         0.197269        -0.138962
 C        -0.673791         1.392947         0.691821
 C         0.288980         2.720095         0.577999
 C        -0.333990         3.552109         1.710399
 C        -0.959320         2.586872         2.719030
 C        -0.652793         1.200263         2.243094
 C        -1.867271         3.457048         1.826359
 O        -2.686808         2.885058         0.716386
 C        -2.052881         1.798841         0.042273
 H         0.147464         0.642365        -0.884040
 H         1.259870         2.476676         0.892202
 H         0.439026         3.197635        -0.349376
 H         0.177517         4.435678         1.963683
 H        -0.971771         2.842957         3.750724
 H         0.436260         0.960388         2.516941
 H        -1.421152         0.470230         2.555549
 H        -2.452821         4.176150         2.359372
 H        -2.582323         0.852367        -0.014628
 H        -1.880652         2.178063        -0.961985
