19
Iteration:  3908charge 0 multiplicity 1
 O        -0.228209         0.289856        -0.173480
 C        -0.656073         1.482879         0.619787
 C         0.259438         2.798044         0.467010
 C        -0.417893         3.616395         1.561021
 C        -0.777890         2.698834         2.656239
 C        -0.684598         1.191288         2.143808
 C        -1.881268         3.452566         1.774067
 O        -2.678379         2.748446         0.928967
 C        -2.106745         1.606646         0.257291
 H        -0.742539        -0.321662         0.418325
 H         1.231071         2.495951         0.741818
 H         0.450780         3.243363        -0.526592
 H         0.004446         4.558849         1.828096
 H        -0.630727         3.007499         3.721032
 H         0.251489         0.713237         2.620432
 H        -1.603077         0.705979         2.184345
 H        -2.484983         4.356770         2.153079
 H        -2.782887         0.700319         0.567691
 H        -2.239473         1.820933        -0.753075
