19
Iteration:  2083
 O        -0.206877         0.206235        -0.123159
 C        -0.667357         1.349914         0.699363
 C         0.264609         2.605139         0.679065
 C        -0.337240         3.404963         1.925779
 C        -1.191525         2.522308         2.756471
 C        -1.096986         1.082826         2.160016
 C        -1.829982         3.488638         1.815758
 O        -2.381908         3.190263         0.530510
 C        -1.915508         1.924786        -0.043707
 H         0.760701         0.174889        -0.031639
 H         1.337113         2.415965         0.805101
 H         0.207396         3.211957        -0.224131
 H         0.204537         4.179163         2.401632
 H        -1.051042         2.635163         3.809201
 H        -0.313916         0.546942         2.674973
 H        -1.994987         0.464654         1.925391
 H        -2.455616         4.288668         2.249820
 H        -2.741142         1.222211        -0.143462
 H        -1.478708         2.033481        -1.104816
