19
Iteration:  2314charge 0 multiplicity 1
 O        -0.175043         0.293648        -0.030650
 C        -0.765074         1.372939         0.688239
 C         0.254055         2.645321         0.698542
 C        -0.336181         3.493778         1.821665
 C        -1.110661         2.513448         2.722785
 C        -0.906731         1.012951         2.120940
 C        -1.844164         3.505853         1.818796
 O        -2.419079         3.092720         0.561420
 C        -1.922628         1.862495        -0.019933
 H        -0.915613        -0.236934        -0.406194
 H         1.271036         2.269730         0.553200
 H        -0.061922         3.140213        -0.213001
 H         0.239292         4.360583         2.352731
 H        -0.966407         2.646624         3.840398
 H         0.130832         0.734689         2.362916
 H        -1.843384         0.425449         2.385380
 H        -2.463554         4.311795         2.292244
 H        -2.836045         1.258457        -0.021948
 H        -1.694480         2.087145        -1.054063
