19
Iteration:  4449charge 0 multiplicity 1
 O        -0.239579         0.273987        -0.200710
 C        -0.664460         1.397191         0.718172
 C         0.180647         2.691757         0.494453
 C        -0.307100         3.550843         1.643052
 C        -1.036589         2.580123         2.701677
 C        -0.744657         1.231093         2.209071
 C        -1.792285         3.457625         1.765610
 O        -2.564518         2.888884         0.794613
 C        -2.090754         1.766671         0.171692
 H         0.229565        -0.389153         0.352972
 H         1.240098         2.530148         0.499686
 H        -0.009506         3.050275        -0.552674
 H         0.060245         4.558490         2.046211
 H        -0.883276         2.798802         3.797720
 H         0.197294         0.959474         2.756720
 H        -1.538871         0.604367         2.502504
 H        -2.388551         4.369686         2.156175
 H        -2.747621         0.932805         0.280396
 H        -2.066082         1.930799        -0.994858
