19
Iteration:  2326charge 0 multiplicity 1
 O        -0.212601         0.281836        -0.075938
 C        -0.750740         1.340159         0.703306
 C         0.145365         2.629824         0.730502
 C        -0.292398         3.558823         1.825851
 C        -1.071483         2.488846         2.685406
 C        -0.883733         1.067208         2.237264
 C        -1.775658         3.489175         1.772158
 O        -2.470829         3.050269         0.593731
 C        -1.967486         1.899331        -0.097352
 H        -0.723142         0.178172        -0.901502
 H         1.146580         2.282368         1.084793
 H         0.297932         3.046471        -0.230664
 H         0.373662         4.308838         2.358914
 H        -1.275024         2.669120         3.743079
 H         0.068709         0.691768         2.658684
 H        -1.541691         0.248017         2.656005
 H        -2.328905         4.341346         2.173561
 H        -2.640835         1.073094        -0.272570
 H        -1.519981         2.226482        -1.045381
