19
Iteration:   434charge 0 multiplicity 1
 O        -0.181689         0.342263        -0.116745
 C        -0.670327         1.403982         0.666951
 C         0.280671         2.697362         0.692303
 C        -0.287083         3.397895         1.943004
 C        -1.251306         2.437463         2.703086
 C        -1.154168         1.015576         2.111417
 C        -1.733251         3.495111         1.764024
 O        -2.332629         3.132458         0.586711
 C        -1.962624         1.826969        -0.024745
 H         0.565450        -0.047383         0.364411
 H         1.336505         2.495584         0.766454
 H         0.053587         3.397681        -0.236868
 H         0.143785         4.251089         2.314503
 H        -1.268109         2.566263         3.833094
 H        -0.379743         0.530216         2.667124
 H        -2.260084         0.577394         2.103663
 H        -2.207279         4.376607         2.276998
 H        -2.787062         1.120058         0.026962
 H        -1.855913         1.905782        -1.119176
