19
Iteration:    57charge 0 multiplicity 1
 O        -0.186702         0.247987        -0.068640
 C        -0.718934         1.439534         0.570023
 C         0.463849         2.531861         0.801942
 C        -0.166447         3.455024         1.858504
 C        -1.291461         2.481244         2.684661
 C        -1.060955         1.102438         2.079518
 C        -1.780827         3.523663         1.800206
 O        -2.627486         3.033040         0.715264
 C        -1.953715         2.023937        -0.145296
 H         0.691261        -0.027265         0.349526
 H         1.404370         2.068336         0.988298
 H         0.570789         3.049360        -0.193583
 H         0.352427         4.161801         2.341571
 H        -1.566126         2.537105         3.767539
 H        -0.142172         0.754308         2.493559
 H        -1.844043         0.338042         2.307413
 H        -2.342735         4.444031         2.032150
 H        -2.570169         1.131690        -0.332837
 H        -1.665075         2.414107        -1.100193
