19
Iteration:  2301charge 0 multiplicity 1
 O        -0.135800         0.267916        -0.036406
 C        -0.616678         1.420755         0.631258
 C         0.228495         2.646677         0.592403
 C        -0.316826         3.390212         1.858211
 C        -1.129710         2.453232         2.733677
 C        -0.947832         1.152533         2.132482
 C        -1.834891         3.438087         1.808880
 O        -2.422444         3.158572         0.566625
 C        -2.044930         1.893164         0.027541
 H        -0.756337        -0.461031         0.114081
 H         1.271271         2.533684         0.850511
 H         0.226270         3.265171        -0.357114
 H         0.246817         4.297156         2.175260
 H        -1.288009         2.614264         3.841300
 H        -0.224082         0.500930         2.660018
 H        -1.812166         0.433313         2.123394
 H        -2.375851         4.301618         2.255062
 H        -2.727517         1.027136         0.247292
 H        -1.900899         1.993136        -1.016013
