19
Iteration:  1678charge 0 multiplicity 1
 O        -0.248783         0.228359        -0.062429
 C        -0.626458         1.489505         0.590873
 C         0.421749         2.510691         0.768726
 C        -0.330467         3.445469         1.807601
 C        -1.259655         2.445723         2.723281
 C        -1.032317         1.097410         2.103878
 C        -1.795119         3.480136         1.732196
 O        -2.588622         3.068941         0.697011
 C        -1.871332         2.070606        -0.098868
 H         0.500860        -0.118087         0.472846
 H         1.355261         2.252141         1.225335
 H         0.731699         3.015399        -0.157155
 H         0.301222         4.201933         2.302800
 H        -1.441058         2.753159         3.808061
 H        -0.215265         0.555211         2.480010
 H        -1.854508         0.293640         2.005179
 H        -2.421698         4.220608         2.365638
 H        -2.492186         1.197222        -0.400898
 H        -1.384712         2.458424        -0.996588
