19
Iteration:  4657
 O        -0.077935         0.256772        -0.062707
 C        -0.698228         1.406127         0.683386
 C         0.283675         2.534542         0.474314
 C        -0.283886         3.510873         1.555127
 C        -1.109258         2.586848         2.690881
 C        -0.821384         1.154953         2.129500
 C        -1.823257         3.523452         1.802768
 O        -2.733710         2.924865         0.912344
 C        -2.093986         1.889002         0.140040
 H         0.833215         0.556379        -0.183325
 H         1.365846         2.264436         0.728007
 H         0.336821         2.817505        -0.638436
 H         0.283149         4.443156         1.704281
 H        -1.018229         2.961845         3.679882
 H         0.191669         0.776334         2.543316
 H        -1.495337         0.400383         2.130527
 H        -2.331597         4.333117         2.209144
 H        -2.906770         1.118860         0.167868
 H        -1.959779         2.204033        -0.842381
