19
Iteration:  4593
 O        -0.339740         0.170637        -0.072319
 C        -0.627378         1.417619         0.676609
 C         0.228586         2.709098         0.501356
 C        -0.358000         3.452478         1.653335
 C        -1.020530         2.622751         2.716406
 C        -0.732695         1.205121         2.196237
 C        -1.869212         3.471204         1.780882
 O        -2.642166         2.868194         0.803309
 C        -1.972931         1.903285         0.077960
 H         0.617879         0.077708         0.051052
 H         1.231588         2.559293         0.625010
 H         0.055121         3.236942        -0.458926
 H         0.245202         4.306931         1.982144
 H        -0.678086         2.916513         3.705439
 H         0.304835         0.895199         2.626977
 H        -1.439854         0.370167         2.268016
 H        -2.316962         4.323873         2.219672
 H        -2.601029         1.073618        -0.169195
 H        -1.730777         2.288262        -0.978546
