19
Iteration:  1191charge 0 multiplicity 1
 O        -0.178836         0.393587        -0.219548
 C        -0.607495         1.365352         0.670882
 C         0.329117         2.482771         0.836144
 C        -0.363130         3.360749         1.788376
 C        -1.162386         2.515477         2.694978
 C        -0.947420         1.138227         2.218137
 C        -1.873602         3.504692         1.728101
 O        -2.626275         3.064264         0.638673
 C        -1.891430         1.938426        -0.006766
 H         0.611752         0.043686         0.167338
 H         1.239730         2.066995         1.256912
 H         0.625788         2.887201        -0.158174
 H         0.155448         4.181519         2.135731
 H        -1.288046         2.717173         3.743987
 H        -0.187453         0.510887         2.676938
 H        -1.892337         0.470568         2.238267
 H        -2.246934         4.480328         2.094621
 H        -2.657085         1.252769        -0.345572
 H        -1.522798         2.456550        -0.885402
