19
Iteration:  1208
 O        -0.227496         0.340100        -0.166878
 C        -0.716654         1.446527         0.675362
 C         0.439702         2.555931         0.823958
 C        -0.278885         3.549150         1.801933
 C        -1.260287         2.501775         2.733166
 C        -1.082673         1.076592         2.087515
 C        -1.763833         3.464115         1.765432
 O        -2.547419         2.917116         0.689485
 C        -1.940983         1.970208        -0.119445
 H         0.637578         0.077032         0.103569
 H         1.418629         2.188668         1.277454
 H         0.829892         3.039821        -0.088392
 H         0.319272         4.554884         2.159293
 H        -1.269659         2.742669         3.848248
 H        -0.146812         0.674152         2.596653
 H        -1.809623         0.366613         2.314593
 H        -2.343398         4.294504         2.228820
 H        -2.552934         1.048644        -0.033095
 H        -1.684328         2.183905        -1.195547
