19
Iteration:   259charge 0 multiplicity 1
 O        -0.352476         0.359075        -0.186522
 C        -0.640875         1.422365         0.649163
 C         0.391246         2.552206         0.814213
 C        -0.316899         3.406776         1.820912
 C        -1.248277         2.455850         2.795490
 C        -0.978400         1.143925         2.207756
 C        -1.841441         3.503470         1.748411
 O        -2.454948         3.015795         0.570342
 C        -1.875224         1.965247        -0.066209
 H         0.545467        -0.058855        -0.059758
 H         1.329068         2.252407         1.298818
 H         0.681987         3.000050        -0.244708
 H         0.181544         4.222075         2.212170
 H        -1.502714         2.494241         3.892481
 H        -0.200477         0.603511         2.666232
 H        -1.817547         0.381490         2.209192
 H        -2.319641         4.465267         2.096822
 H        -2.476107         1.061691        -0.007230
 H        -1.623986         2.245339        -1.054257
