19
Iteration:  4306charge 0 multiplicity 1
 O        -0.045900         0.253196        -0.000995
 C        -0.674154         1.406661         0.620814
 C         0.312538         2.717179         0.415228
 C        -0.308524         3.585984         1.553705
 C        -1.020722         2.620423         2.648193
 C        -0.758871         1.174343         2.089398
 C        -1.805077         3.554661         1.810715
 O        -2.742561         2.892634         0.971486
 C        -2.207682         1.619329         0.226303
 H        -0.321966         0.316613        -0.955356
 H         1.403144         2.576787         0.501855
 H         0.159935         2.993043        -0.723547
 H         0.167234         4.375523         1.949146
 H        -0.983894         2.804520         3.725740
 H         0.218102         0.762538         2.468795
 H        -1.538842         0.544002         2.277423
 H        -1.992292         4.526303         2.045710
 H        -2.837691         0.832882         0.533554
 H        -2.341714         1.844930        -0.912227
