19
Iteration:  2034charge 0 multiplicity 1
 O        -0.136483         0.307144        -0.055709
 C        -0.728333         1.372430         0.619513
 C         0.331242         2.508564         0.775500
 C        -0.317758         3.343325         1.881022
 C        -1.224461         2.470060         2.655715
 C        -1.028549         1.066907         2.160089
 C        -1.830932         3.513688         1.759627
 O        -2.449790         3.219673         0.551735
 C        -2.012135         1.958191        -0.027287
 H         0.823359         0.513058        -0.090841
 H         1.246972         2.096950         1.223793
 H         0.560034         2.933885        -0.227163
 H         0.442082         4.031071         2.313483
 H        -1.288582         2.576780         3.742940
 H        -0.075768         0.658211         2.576922
 H        -1.840799         0.416103         2.304559
 H        -2.301820         4.410834         2.033132
 H        -2.800406         1.147676         0.150160
 H        -1.890469         2.052650        -1.063813
