19
Iteration:  1953charge 0 multiplicity 1
 O        -0.022506         0.257217        -0.087406
 C        -0.658475         1.405464         0.606441
 C         0.373738         2.478062         0.818308
 C        -0.321019         3.437179         1.762936
 C        -1.177386         2.486377         2.664344
 C        -1.235264         1.114664         2.061848
 C        -1.798973         3.550102         1.727428
 O        -2.579673         3.035269         0.781827
 C        -1.953870         2.057131        -0.110219
 H         0.645463        -0.228517         0.462151
 H         1.400118         2.094067         1.346137
 H         0.630097         2.956935        -0.157575
 H         0.360604         4.187741         2.245522
 H        -1.130300         2.644779         3.762136
 H        -0.649908         0.387742         2.632346
 H        -2.285885         0.601079         2.118466
 H        -2.104764         4.487504         2.322126
 H        -2.659395         1.285566        -0.432047
 H        -1.551733         2.614993        -0.992781
