19
Iteration:  4716charge 0 multiplicity 1
 O        -0.339976         0.240706        -0.141783
 C        -0.616767         1.419216         0.644750
 C         0.262609         2.746431         0.549097
 C        -0.350844         3.562298         1.682858
 C        -0.967743         2.576710         2.662036
 C        -0.725994         1.151289         2.176875
 C        -1.848862         3.485353         1.782292
 O        -2.555478         2.935580         0.743169
 C        -2.095205         1.747520         0.140838
 H         0.428159        -0.180866         0.261816
 H         1.266604         2.645453         0.833074
 H         0.158170         3.146291        -0.446273
 H        -0.063541         4.596828         1.947209
 H        -0.920005         2.731284         3.796173
 H         0.159302         0.734519         2.673748
 H        -1.591861         0.398538         2.460333
 H        -2.487467         4.203019         2.399918
 H        -2.657721         0.975294         0.571136
 H        -2.087470         1.721370        -0.996755
