19
Iteration:  2206charge 0 multiplicity 1
 O        -0.199393         0.196373         0.092069
 C        -0.647917         1.461641         0.596819
 C         0.400348         2.632096         0.763465
 C        -0.298687         3.468292         1.813866
 C        -1.182192         2.480896         2.653152
 C        -1.029114         1.104495         1.995682
 C        -1.799179         3.510023         1.774089
 O        -2.526226         3.043455         0.681740
 C        -1.974989         1.979470        -0.072975
 H        -0.659601        -0.077262        -0.720173
 H         1.323322         2.103440         1.182130
 H         0.653230         2.970163        -0.222497
 H         0.306861         4.312861         2.315490
 H        -1.243329         2.583688         3.778533
 H        -0.102943         0.688905         2.489139
 H        -1.775634         0.226215         2.149109
 H        -2.327517         4.271477         2.391008
 H        -2.700937         1.142880        -0.054601
 H        -1.713888         2.359201        -1.178507
