19
Iteration:  2019charge 0 multiplicity 1
 O        -0.232232         0.157610        -0.138820
 C        -0.613188         1.350158         0.715562
 C         0.311904         2.530524         0.864514
 C        -0.337687         3.482387         1.836797
 C        -1.217863         2.446765         2.686221
 C        -0.920935         1.039633         2.152923
 C        -1.821210         3.526204         1.779870
 O        -2.535635         3.270769         0.510321
 C        -1.942321         1.976788        -0.053281
 H         0.721611         0.066256        -0.264313
 H         1.438329         2.127643         1.130191
 H         0.572947         3.075449        -0.072054
 H         0.101240         4.276137         2.354523
 H        -1.446237         2.657773         3.720391
 H        -0.050182         0.655929         2.693736
 H        -1.836893         0.332489         2.258156
 H        -2.425059         4.206511         2.481607
 H        -2.818140         1.307122        -0.117604
 H        -1.713403         2.272917        -1.132657
