19
Iteration:   832
 O        -0.198711         0.268723        -0.104263
 C        -0.600188         1.419664         0.640489
 C         0.393510         2.485730         0.795810
 C        -0.379443         3.441729         1.796428
 C        -1.258672         2.429779         2.740709
 C        -0.942758         1.084407         2.139069
 C        -1.869512         3.518449         1.756806
 O        -2.610935         3.082053         0.694372
 C        -1.914429         2.050818        -0.184479
 H         0.698731        -0.072212         0.171297
 H         1.208554         2.187988         1.495607
 H         0.787691         2.963526        -0.158869
 H         0.232899         4.225330         2.356278
 H        -1.138145         2.796711         3.788977
 H        -0.053308         0.716483         2.640134
 H        -1.789488         0.304337         2.139137
 H        -2.271252         4.458943         2.169726
 H        -2.572033         1.206413        -0.298987
 H        -1.536475         2.491693        -1.173090
