19
Iteration:  3402charge 0 multiplicity 1
 O        -0.198847         0.218337        -0.050729
 C        -0.605024         1.426679         0.589051
 C         0.230628         2.772810         0.555833
 C        -0.377442         3.597547         1.694687
 C        -0.932416         2.581939         2.669623
 C        -0.698198         1.139382         2.126495
 C        -1.847651         3.464349         1.827440
 O        -2.634544         2.906695         0.714445
 C        -2.129171         1.746876         0.226235
 H        -0.776312         0.136604        -0.846774
 H         1.327214         2.684389         0.707133
 H         0.186598         3.291004        -0.477151
 H         0.117257         4.480043         1.976174
 H        -0.971304         2.687932         3.728616
 H         0.193043         0.713098         2.506918
 H        -1.520619         0.522723         2.306630
 H        -2.418924         4.249997         2.317027
 H        -2.648370         0.848446         0.534040
 H        -2.073331         1.685299        -0.844783
