19
Iteration:  1333
 O        -0.175259         0.303808        -0.152995
 C        -0.688333         1.377706         0.693278
 C         0.227936         2.610373         0.713579
 C        -0.353290         3.431536         1.871000
 C        -1.195728         2.470846         2.762542
 C        -0.928131         1.034516         2.173512
 C        -1.824408         3.514381         1.787416
 O        -2.446385         3.142634         0.534016
 C        -1.959195         1.931743        -0.064965
 H         0.603468        -0.057444         0.288425
 H         1.175800         2.245972         1.153173
 H         0.263210         3.074974        -0.301522
 H         0.190186         4.123500         2.399548
 H        -1.159905         2.562924         3.882757
 H        -0.207255         0.404630         2.695278
 H        -1.839060         0.426646         2.366864
 H        -2.330887         4.395283         2.204899
 H        -2.717618         1.177407        -0.146409
 H        -1.611651         2.115474        -1.091116
