19
Iteration:  1237
 O        -0.213593         0.210495        -0.070246
 C        -0.606541         1.432927         0.661345
 C         0.354283         2.625439         0.741190
 C        -0.331589         3.418253         1.866684
 C        -1.090505         2.457727         2.776018
 C        -1.106019         1.218080         2.022434
 C        -1.833072         3.469384         1.810475
 O        -2.608781         2.950980         0.662272
 C        -1.846841         2.032728        -0.132581
 H         0.676240         0.009327         0.303704
 H         1.404164         2.438914         0.910418
 H         0.286017         3.236896        -0.178886
 H         0.141012         4.293577         2.279133
 H        -0.886136         2.641093         3.828272
 H        -0.509501         0.410942         2.466089
 H        -2.165739         0.694185         2.085291
 H        -2.257439         4.407325         2.067044
 H        -2.556897         1.136679        -0.182543
 H        -1.687678         2.346355        -1.202427
