19
Iteration:  1218charge 0 multiplicity 1
 O        -0.289161         0.293191        -0.089809
 C        -0.634803         1.465023         0.546950
 C         0.414662         2.678901         0.819268
 C        -0.228052         3.510840         1.880801
 C        -1.185336         2.489974         2.682595
 C        -1.103052         1.141154         2.084190
 C        -1.791735         3.498897         1.791653
 O        -2.523827         2.885229         0.704902
 C        -1.920114         1.868824        -0.106489
 H         0.609217         0.147535         0.194624
 H         1.229832         2.103477         1.323081
 H         0.754577         3.162224        -0.098279
 H         0.298362         4.545274         2.172208
 H        -1.433566         2.715275         3.763271
 H        -0.316153         0.437821         2.405852
 H        -1.997129         0.558894         2.004044
 H        -2.480129         4.211207         2.257260
 H        -2.731741         1.094774        -0.311806
 H        -1.779474         2.380857        -1.145071
