19
Iteration:  3905charge 0 multiplicity 1
 O        -0.220409         0.300726        -0.184135
 C        -0.643124         1.474058         0.606790
 C         0.239937         2.794641         0.461531
 C        -0.413468         3.598021         1.538167
 C        -0.796701         2.713874         2.671284
 C        -0.676463         1.190616         2.152169
 C        -1.851013         3.469388         1.772269
 O        -2.694713         2.745625         0.915288
 C        -2.116442         1.619022         0.307058
 H        -0.735038        -0.396926         0.289514
 H         1.256213         2.391083         0.909159
 H         0.490327         3.201355        -0.506135
 H        -0.042257         4.627103         1.798225
 H        -0.690028         2.948635         3.706505
 H         0.214762         0.688787         2.531899
 H        -1.626348         0.685914         2.235292
 H        -2.530817         4.342075         2.240103
 H        -2.681553         0.715434         0.579740
 H        -2.158105         1.795457        -0.800890
