19
Iteration:   622charge 0 multiplicity 1
 O        -0.296283         0.381009        -0.189788
 C        -0.654219         1.386032         0.748850
 C         0.345660         2.599838         0.770592
 C        -0.309413         3.409100         1.821504
 C        -1.237962         2.461050         2.760603
 C        -1.041348         1.058063         2.200481
 C        -1.833365         3.445947         1.752421
 O        -2.414520         3.047717         0.576267
 C        -1.867687         1.969422        -0.047331
 H         0.447280        -0.195753         0.156367
 H         1.400662         2.402630         0.931284
 H         0.275156         3.055764        -0.288400
 H         0.270534         4.335850         2.243210
 H        -1.336145         2.718041         3.832499
 H        -0.206738         0.625960         2.724551
 H        -2.056343         0.504447         2.196394
 H        -2.389411         4.393206         2.079269
 H        -2.540291         1.112384        -0.215759
 H        -1.546665         2.294370        -1.137328
