19
Iteration:  3952charge 0 multiplicity 1
 O        -0.058223         0.312355        -0.028574
 C        -0.673995         1.334084         0.622885
 C         0.095502         2.662514         0.421743
 C        -0.420214         3.538119         1.487978
 C        -0.881097         2.629080         2.641033
 C        -0.598528         1.170234         2.225147
 C        -1.831804         3.480462         1.844066
 O        -2.743896         2.830062         0.980395
 C        -2.203759         1.869867         0.055487
 H         0.225276        -0.445289         0.532551
 H         1.150010         2.549041         0.360020
 H        -0.136704         3.014332        -0.628906
 H         0.095111         4.382154         1.840242
 H        -0.449045         2.838135         3.649856
 H         0.527439         0.932128         2.366611
 H        -1.330747         0.556434         2.629447
 H        -2.271480         4.451411         2.113872
 H        -2.962238         0.993893         0.031370
 H        -2.086268         2.290228        -0.900968
