19
Iteration:  3554
 O        -0.192944         0.293788        -0.147499
 C        -0.640296         1.400468         0.657376
 C         0.270782         2.737843         0.519712
 C        -0.353251         3.602672         1.631836
 C        -0.934457         2.664744         2.684979
 C        -0.636202         1.225979         2.191776
 C        -1.856839         3.428886         1.769945
 O        -2.715168         2.834382         0.801324
 C        -2.107755         1.691259         0.234370
 H        -0.903457         0.134913        -0.813518
 H         1.260999         2.307538         0.719708
 H         0.202237         3.171012        -0.505641
 H         0.060236         4.579395         1.895897
 H        -0.966334         2.832585         3.786249
 H         0.322556         0.662036         2.543589
 H        -1.451989         0.467485         2.440333
 H        -2.349119         4.310516         2.299987
 H        -2.692364         0.802762         0.609857
 H        -2.087998         1.716130        -0.919142
