19
Iteration:   505charge 0 multiplicity 1
 O        -0.248877         0.282434        -0.130878
 C        -0.610040         1.401525         0.640751
 C         0.450910         2.548796         0.842065
 C        -0.308588         3.356404         1.896424
 C        -1.224756         2.521777         2.662335
 C        -1.002774         1.099863         2.136724
 C        -1.853412         3.439583         1.721413
 O        -2.587192         3.160203         0.606205
 C        -1.935415         1.970556        -0.060084
 H         0.551572        -0.124546         0.263680
 H         1.502268         2.101763         1.131163
 H         0.548646         3.211884        -0.063810
 H         0.134613         4.416559         2.293677
 H        -1.322965         2.462193         3.766065
 H        -0.104152         0.579456         2.604294
 H        -1.912558         0.600078         2.128961
 H        -2.257146         4.354718         2.289690
 H        -2.535956         1.034868        -0.215952
 H        -1.659435         2.281240        -1.090145
