19
Iteration:  3910
 O        -0.234845         0.284481        -0.161671
 C        -0.657755         1.484700         0.624872
 C         0.265452         2.795421         0.469974
 C        -0.415539         3.631005         1.570974
 C        -0.773464         2.685153         2.649825
 C        -0.678865         1.203287         2.139252
 C        -1.900056         3.446580         1.782467
 O        -2.672039         2.749345         0.936373
 C        -2.104554         1.600727         0.229887
 H        -0.710536        -0.293339         0.451044
 H         1.263502         2.550545         0.663239
 H         0.380920         3.269689        -0.545153
 H         0.052147         4.542838         1.848680
 H        -0.595989         3.024386         3.704405
 H         0.216292         0.738373         2.640216
 H        -1.655878         0.649716         2.221104
 H        -2.401435         4.301528         2.083441
 H        -2.792857         0.731952         0.535786
 H        -2.300326         1.833955        -0.809939
