19
Iteration:  3487charge 0 multiplicity 1
 O        -0.106822         0.251271        -0.019820
 C        -0.694990         1.500501         0.564965
 C         0.230041         2.779649         0.418283
 C        -0.297057         3.594893         1.631760
 C        -0.875905         2.616473         2.632308
 C        -0.873300         1.232498         2.048553
 C        -1.781466         3.503937         1.834350
 O        -2.697438         2.663291         1.023547
 C        -2.087035         1.761060         0.071861
 H        -0.477538        -0.494489         0.472599
 H         1.315627         2.577122         0.654664
 H         0.210311         3.353390        -0.531898
 H         0.055239         4.519965         1.993367
 H        -0.771655         2.849613         3.623119
 H        -0.111409         0.477220         2.526303
 H        -1.954800         0.853637         2.187263
 H        -2.362357         4.341419         2.215191
 H        -2.620250         0.784708         0.156638
 H        -2.086776         2.286442        -0.980001
