19
Iteration:  3918charge 0 multiplicity 1
 O        -0.253270         0.282128        -0.094045
 C        -0.624600         1.459671         0.603558
 C         0.245266         2.781013         0.455285
 C        -0.361602         3.666916         1.570258
 C        -0.819139         2.647015         2.643502
 C        -0.698235         1.275670         2.137859
 C        -1.868586         3.411543         1.840797
 O        -2.691597         2.732365         0.934680
 C        -2.115494         1.655544         0.123737
 H        -0.491795        -0.526392         0.413115
 H         1.325891         2.652217         0.555391
 H        -0.094550         3.227927        -0.491468
 H         0.158366         4.556765         1.897834
 H        -0.530388         2.892141         3.683919
 H         0.206469         0.700739         2.562257
 H        -1.431872         0.638323         2.543813
 H        -2.379728         4.418283         2.182065
 H        -2.680012         0.692848         0.411664
 H        -2.290434         1.801926        -0.913019
