19
Iteration:   535
 O        -0.221923         0.315573        -0.137857
 C        -0.719037         1.407677         0.649735
 C         0.292273         2.583109         0.731439
 C        -0.305709         3.495175         1.842534
 C        -1.208633         2.521762         2.740651
 C        -1.152380         1.107623         2.145471
 C        -1.722376         3.449416         1.778436
 O        -2.418828         2.983174         0.719552
 C        -1.844478         1.919251        -0.179197
 H         0.679469         0.054197         0.192380
 H         1.140819         2.105220         1.226664
 H         0.521687         3.244146        -0.168200
 H         0.229620         4.519636         2.289873
 H        -1.388830         2.552115         3.789879
 H        -0.570096         0.301140         2.672596
 H        -2.284811         0.794260         2.129519
 H        -2.310618         4.176044         2.301855
 H        -2.573089         1.192504        -0.446263
 H        -1.499212         2.529063        -1.013352
