19
Iteration:  1369
 O        -0.130182         0.283260        -0.002810
 C        -0.703702         1.449490         0.609424
 C         0.223223         2.680166         0.678905
 C        -0.312578         3.417792         1.946545
 C        -1.192253         2.368117         2.698407
 C        -0.994101         1.058499         2.037835
 C        -1.770206         3.516726         1.796462
 O        -2.416800         3.150929         0.546733
 C        -2.042258         1.874363        -0.029880
 H         0.482633        -0.081511         0.663924
 H         1.266465         2.320251         0.825811
 H         0.380663         3.219451        -0.279747
 H         0.413772         4.204761         2.483015
 H        -1.218969         2.441867         3.842464
 H        -0.144881         0.571244         2.533633
 H        -2.044939         0.467999         1.944889
 H        -2.358479         4.364660         2.188022
 H        -2.814976         1.106980         0.073602
 H        -1.937381         2.119030        -1.042226
