19
Iteration:  4190charge 0 multiplicity 1
 O        -0.066393         0.330287        -0.110563
 C        -0.747363         1.369695         0.714858
 C         0.042978         2.634690         0.446148
 C        -0.294118         3.651215         1.561518
 C        -0.812498         2.665039         2.636215
 C        -0.702438         1.199578         2.248490
 C        -1.806272         3.492858         1.910013
 O        -2.657622         2.845943         0.760845
 C        -2.150765         1.652514         0.228867
 H        -0.590813         0.196547        -0.942520
 H         1.084454         2.335752         0.433031
 H        -0.146496         2.955132        -0.517534
 H        -0.034930         4.699798         1.523841
 H        -0.618976         2.789258         3.702611
 H         0.243212         0.796018         2.571637
 H        -1.692171         0.750347         2.724827
 H        -2.431583         4.150714         2.379111
 H        -2.860234         0.816970         0.393135
 H        -1.948245         1.758875        -0.823279
