19
Iteration:  3592charge 0 multiplicity 1
 O        -0.041171         0.243806         0.024378
 C        -0.697724         1.375463         0.614040
 C         0.009879         2.732139         0.412612
 C        -0.315801         3.616917         1.669354
 C        -0.883149         2.556136         2.705362
 C        -0.690712         1.156328         2.113897
 C        -1.805350         3.445378         1.818188
 O        -2.623800         2.978301         0.760838
 C        -2.192898         1.687702         0.246584
 H         0.076262         0.370229        -0.937159
 H         1.130255         2.608427         0.399701
 H        -0.382912         3.280082        -0.490014
 H         0.209370         4.553496         1.870558
 H        -1.002022         2.635822         3.767030
 H         0.187614         0.740806         2.463403
 H        -1.424371         0.450169         2.437690
 H        -2.324048         4.309521         2.156632
 H        -2.957781         0.962129         0.488167
 H        -2.190894         1.748802        -0.874048
