19
Iteration:    70
 O        -0.137695         0.245606         0.019147
 C        -0.688207         1.397375         0.618333
 C         0.351515         2.600628         0.737376
 C        -0.199922         3.399545         1.881831
 C        -1.160342         2.463298         2.643716
 C        -1.083467         1.104527         2.042951
 C        -1.759566         3.463362         1.747889
 O        -2.621090         3.050198         0.689885
 C        -1.990880         2.034820        -0.132355
 H         0.647312         0.177525         0.539866
 H         1.245294         2.172654         1.078985
 H         0.648371         3.224870        -0.193449
 H         0.363759         4.257194         2.277020
 H        -1.412175         2.495299         3.740866
 H        -0.434372         0.456214         2.579896
 H        -2.166730         0.628105         1.957321
 H        -2.083425         4.326621         2.414972
 H        -2.919353         1.398981        -0.433085
 H        -1.612921         2.621352        -0.990976
