19
Iteration:  4494charge 0 multiplicity 1
 O        -0.201624         0.225734         0.038515
 C        -0.692592         1.411782         0.611505
 C         0.243199         2.704250         0.545392
 C        -0.354821         3.558987         1.605230
 C        -0.989338         2.536771         2.707543
 C        -0.721898         1.166772         2.184987
 C        -1.797324         3.423510         1.853362
 O        -2.628817         3.015153         0.703157
 C        -2.164616         1.730444         0.110821
 H        -0.014020         0.466906        -0.894449
 H         1.241702         2.445772         0.755070
 H         0.320348         3.203663        -0.458425
 H         0.294443         4.467282         1.879317
 H        -0.708674         2.875046         3.684401
 H         0.341500         0.917992         2.396879
 H        -1.368553         0.357522         2.473080
 H        -2.317805         4.253944         2.400495
 H        -2.859778         0.949207         0.325641
 H        -2.153238         1.871440        -1.051259
