19
Iteration:  4286
 O        -0.168439         0.231538        -0.013895
 C        -0.709440         1.419079         0.613885
 C         0.079989         2.692198         0.443607
 C        -0.315021         3.550369         1.619529
 C        -0.860327         2.625617         2.663694
 C        -0.713313         1.239336         2.169273
 C        -1.808929         3.473616         1.790482
 O        -2.671625         2.847021         0.831301
 C        -2.122270         1.746658         0.197591
 H         0.565769         0.572179        -0.589340
 H         1.161356         2.385075         0.450293
 H        -0.038647         3.263455        -0.571832
 H         0.236673         4.402567         1.808236
 H        -0.750911         2.913833         3.722241
 H         0.261298         0.866279         2.583528
 H        -1.515498         0.559781         2.446067
 H        -2.338263         4.192118         2.309853
 H        -2.666525         0.775184         0.443319
 H        -2.321198         1.900715        -0.854527
