19
Iteration:  2015
 O        -0.266531         0.135779        -0.148805
 C        -0.622061         1.360863         0.702929
 C         0.363160         2.570572         0.880013
 C        -0.370203         3.503769         1.827681
 C        -1.214988         2.435095         2.699701
 C        -0.912765         1.031034         2.159662
 C        -1.823978         3.517628         1.794765
 O        -2.526641         3.252961         0.502598
 C        -1.930581         1.981243        -0.025709
 H         0.689833        -0.049723        -0.302106
 H         1.332991         2.168346         1.054850
 H         0.537470         3.023685        -0.098117
 H         0.148742         4.390032         2.348572
 H        -1.569512         2.568433         3.765048
 H        -0.004045         0.612757         2.630004
 H        -1.809879         0.421656         2.238020
 H        -2.410616         4.302826         2.330908
 H        -2.729846         1.275055        -0.259935
 H        -1.595373         2.325443        -1.046695
