19
Iteration:  3939charge 0 multiplicity 1
 O        -0.114887         0.261955        -0.063447
 C        -0.727482         1.440153         0.649436
 C         0.050400         2.680153         0.325212
 C        -0.344033         3.557700         1.573252
 C        -0.853321         2.641292         2.719599
 C        -0.613544         1.254225         2.152644
 C        -1.848147         3.434020         1.808331
 O        -2.722738         2.786496         0.956671
 C        -2.077032         1.792564         0.124428
 H        -0.079293        -0.346837         0.675282
 H         1.141174         2.363202         0.406719
 H        -0.186993         3.219047        -0.609606
 H         0.174952         4.505453         1.625753
 H        -0.942450         2.976602         3.762705
 H         0.380549         0.851773         2.527652
 H        -1.249285         0.431336         2.446249
 H        -2.393764         4.337221         2.378738
 H        -2.851117         1.054804        -0.111245
 H        -1.869171         2.282176        -0.828181
