19
Iteration:  3828charge 0 multiplicity 1
 O        -0.154304         0.238157        -0.030055
 C        -0.694972         1.424515         0.508049
 C         0.129860         2.902801         0.297254
 C        -0.411718         3.641534         1.537789
 C        -0.815839         2.626098         2.700033
 C        -0.685040         1.262574         2.138079
 C        -1.882608         3.389905         1.909133
 O        -2.581086         2.828444         0.856543
 C        -2.111010         1.655234         0.260337
 H        -0.422668        -0.592250         0.434947
 H         1.152653         2.726462         0.581851
 H        -0.093807         3.279814        -0.649146
 H         0.200994         4.472736         1.957691
 H        -0.575560         2.647523         3.735164
 H         0.140325         0.650721         2.548515
 H        -1.562653         0.678623         2.384323
 H        -2.673582         4.010933         2.358683
 H        -2.595056         0.698313         0.780831
 H        -2.375750         1.591744        -0.772931
