19
Iteration:  2221
 O        -0.313595         0.202851        -0.062574
 C        -0.647539         1.385522         0.674363
 C         0.300738         2.592044         0.771001
 C        -0.332644         3.465643         1.844759
 C        -1.143751         2.488034         2.686290
 C        -0.918997         1.105629         2.145942
 C        -1.841878         3.537945         1.756195
 O        -2.518823         3.070192         0.591444
 C        -1.823325         1.915494        -0.003407
 H        -0.466623         0.447743        -0.987671
 H         1.320387         2.351757         1.136989
 H         0.435855         3.264336        -0.121694
 H         0.266627         4.225149         2.357582
 H        -1.179370         2.649980         3.751092
 H        -0.054480         0.580960         2.576223
 H        -1.858028         0.625347         2.135693
 H        -2.379291         4.439372         2.100113
 H        -2.543465         1.055672        -0.061919
 H        -1.568392         2.160989        -1.051904
