19
Iteration:  4037
 O        -0.045808         0.290718        -0.011347
 C        -0.718536         1.387301         0.659160
 C         0.141067         2.659855         0.419041
 C        -0.459279         3.580379         1.431788
 C        -0.826224         2.599590         2.692384
 C        -0.614662         1.191414         2.185471
 C        -1.870651         3.457649         1.833454
 O        -2.738168         2.908777         0.893683
 C        -2.113635         1.748892         0.190350
 H        -0.832883        -0.103294        -0.439756
 H         1.203839         2.391123         0.746813
 H         0.067478         3.064575        -0.584570
 H         0.046885         4.481085         1.627111
 H        -0.594186         2.936164         3.729516
 H         0.366281         0.886536         2.195415
 H        -1.107305         0.356107         2.693233
 H        -2.360504         4.264553         2.450958
 H        -2.808397         0.956441         0.213886
 H        -2.127191         2.129538        -0.885742
