19
Iteration:  3189charge 0 multiplicity 1
 O        -0.329073         0.199862        -0.098569
 C        -0.640500         1.433797         0.636492
 C         0.264194         2.674954         0.632428
 C        -0.369032         3.605558         1.723118
 C        -1.052316         2.540198         2.614130
 C        -0.631340         1.096430         2.138886
 C        -1.865419         3.463440         1.814398
 O        -2.631844         3.030339         0.700959
 C        -2.055720         1.783853         0.124036
 H         0.631494         0.218507        -0.328815
 H         1.376223         2.531440         1.028636
 H         0.488375         3.132448        -0.368790
 H         0.016114         4.364499         2.306840
 H        -1.064520         2.643416         3.680411
 H         0.324781         0.877018         2.526939
 H        -1.422390         0.330725         2.388351
 H        -2.366472         4.188719         2.387673
 H        -2.712394         0.893163         0.297484
 H        -1.940617         2.015434        -0.967452
