19
Iteration:  4389charge 0 multiplicity 1
 O        -0.195232         0.161329         0.061764
 C        -0.654769         1.480468         0.568913
 C         0.261351         2.703971         0.448202
 C        -0.335930         3.602925         1.598254
 C        -0.976668         2.558769         2.691456
 C        -0.733891         1.214058         2.069740
 C        -1.811204         3.525062         1.844905
 O        -2.741638         2.880829         0.874593
 C        -2.084423         1.753948         0.127514
 H         0.304086         0.497158        -0.706694
 H         1.257047         2.431876         0.888439
 H         0.297481         3.069818        -0.543285
 H         0.336842         4.485097         1.680701
 H        -0.741163         2.839749         3.691550
 H         0.168982         0.722051         2.417059
 H        -1.520839         0.362875         2.232259
 H        -2.400216         4.294342         2.360287
 H        -2.650235         0.788551         0.507592
 H        -2.277058         1.817273        -0.891821
