19
Iteration:  1097charge 0 multiplicity 1
 O        -0.128506         0.389775        -0.173196
 C        -0.709008         1.392459         0.682431
 C         0.260771         2.488963         0.722049
 C        -0.386231         3.499604         1.770004
 C        -1.210545         2.512000         2.762163
 C        -1.011172         1.003040         2.133860
 C        -1.894594         3.533330         1.859689
 O        -2.459849         3.096052         0.616864
 C        -1.863373         1.897139        -0.079652
 H         0.482242        -0.169220         0.388222
 H         1.230601         2.186373         1.214869
 H         0.497487         2.895208        -0.259284
 H         0.329630         4.132078         2.367674
 H        -1.091745         2.692697         3.763407
 H        -0.070343         0.542918         2.569944
 H        -1.824709         0.358521         2.406907
 H        -2.377829         4.433147         2.129547
 H        -2.599948         1.105546        -0.010852
 H        -1.629314         2.197980        -1.090375
