19
Iteration:  1950
 O        -0.011510         0.258483        -0.094902
 C        -0.639877         1.410964         0.624523
 C         0.366816         2.443541         0.803266
 C        -0.319450         3.459807         1.741244
 C        -1.191298         2.483500         2.669353
 C        -1.237302         1.110975         2.056502
 C        -1.819237         3.567724         1.754363
 O        -2.586303         3.042537         0.786676
 C        -1.949963         2.041863        -0.109026
 H         0.621960        -0.138141         0.522688
 H         1.372591         2.166709         1.356561
 H         0.682195         2.867098        -0.166452
 H         0.482633         4.065427         2.269011
 H        -1.126865         2.575785         3.769267
 H        -0.638157         0.375058         2.622350
 H        -2.262834         0.679328         2.072739
 H        -2.086104         4.449350         2.236529
 H        -2.669513         1.316864        -0.440635
 H        -1.563786         2.665302        -1.002472
