19
Iteration:  2325charge 0 multiplicity 1
 O        -0.211937         0.283809        -0.072980
 C        -0.752987         1.339672         0.706645
 C         0.143165         2.633628         0.735566
 C        -0.293004         3.561549         1.821935
 C        -1.069651         2.486945         2.684056
 C        -0.886602         1.058071         2.228254
 C        -1.779542         3.491428         1.774657
 O        -2.465337         3.051762         0.591384
 C        -1.963554         1.899245        -0.098082
 H        -0.739933         0.140709        -0.888187
 H         1.151651         2.272572         1.038033
 H         0.288330         3.057293        -0.257318
 H         0.377244         4.315664         2.390174
 H        -1.263802         2.671782         3.774281
 H         0.082772         0.710734         2.653258
 H        -1.555263         0.244408         2.668794
 H        -2.333552         4.363881         2.183615
 H        -2.643293         1.045199        -0.268176
 H        -1.532551         2.222121        -1.030309
