19
Iteration:  3800charge 0 multiplicity 1
 O        -0.185042         0.341087        -0.132712
 C        -0.709068         1.358727         0.653338
 C         0.131981         2.713283         0.419184
 C        -0.313001         3.598865         1.586024
 C        -0.909672         2.674011         2.638847
 C        -0.522611         1.244456         2.169333
 C        -1.872876         3.434510         1.774056
 O        -2.723560         2.836155         0.869138
 C        -2.158893         1.676404         0.290859
 H         0.257358        -0.400635         0.320068
 H         1.210403         2.463951         0.451172
 H        -0.138753         3.111792        -0.639645
 H         0.118286         4.577009         1.831940
 H        -0.821757         2.776084         3.733830
 H         0.475202         0.934146         2.544846
 H        -1.200652         0.440566         2.555771
 H        -2.563863         4.229364         2.233267
 H        -2.769890         0.826049         0.404335
 H        -2.018380         1.861927        -0.802491
