19
Iteration:  4913
 O        -0.204532         0.294848         0.009775
 C        -0.699651         1.396872         0.645371
 C         0.256964         2.608554         0.492919
 C        -0.382343         3.590895         1.565666
 C        -0.877287         2.555995         2.628917
 C        -0.684277         1.205046         2.091348
 C        -1.882948         3.445529         1.846853
 O        -2.738452         2.907341         0.825653
 C        -2.084882         1.857755         0.100721
 H         0.185806        -0.226575         0.730858
 H         1.232212         2.196905         0.830827
 H         0.495851         3.037176        -0.541128
 H         0.063214         4.588214         1.735052
 H        -0.653262         2.564142         3.656225
 H         0.256143         0.826059         2.486327
 H        -1.433486         0.558344         2.427546
 H        -2.421700         4.132179         2.514966
 H        -2.760709         1.021586         0.025584
 H        -1.866980         2.198217        -0.899898
