19
Iteration:  4006charge 0 multiplicity 1
 O        -0.221821         0.317128        -0.214528
 C        -0.672749         1.442704         0.652407
 C         0.193692         2.746607         0.423450
 C        -0.270335         3.617652         1.575784
 C        -0.900235         2.708097         2.698887
 C        -0.724394         1.257967         2.309462
 C        -1.828985         3.470296         1.753801
 O        -2.711442         2.720129         0.916584
 C        -2.038354         1.612753         0.198459
 H        -0.944944        -0.333815        -0.053544
 H         1.312366         2.463708         0.349734
 H         0.030598         3.282243        -0.573475
 H         0.257695         4.477622         1.883219
 H        -0.889083         3.019590         3.780953
 H         0.383915         0.875006         2.449797
 H        -1.396452         0.530207         2.673854
 H        -2.470316         4.247545         2.230828
 H        -2.686481         0.693947         0.335532
 H        -2.001786         1.929467        -0.858752
