19
Iteration:  2884
 O        -0.071125         0.263322        -0.000776
 C        -0.766822         1.350771         0.632277
 C         0.146804         2.641973         0.580308
 C        -0.312460         3.502288         1.739171
 C        -0.997371         2.511313         2.695562
 C        -0.808902         1.088836         2.165136
 C        -1.812346         3.469011         1.841227
 O        -2.539900         3.071057         0.666728
 C        -2.156932         1.845640         0.057304
 H        -0.154166         0.467138        -0.952089
 H         1.150983         2.333369         0.697687
 H         0.246126         3.111239        -0.481543
 H         0.262259         4.421412         2.059488
 H        -0.991481         2.786736         3.754352
 H         0.212570         0.808105         2.418087
 H        -1.556370         0.375824         2.591805
 H        -2.355633         4.357156         2.269699
 H        -2.973963         1.175974         0.224129
 H        -1.798933         1.949708        -0.966930
