19
Iteration:  2982
 O        -0.177206         0.241685         0.027577
 C        -0.698887         1.411982         0.614380
 C         0.132379         2.716017         0.575613
 C        -0.283555         3.509028         1.718132
 C        -1.015603         2.518022         2.693775
 C        -0.892219         1.119846         2.131640
 C        -1.767783         3.468784         1.858941
 O        -2.529700         2.955362         0.691119
 C        -2.007123         1.866933         0.074284
 H        -0.250071         0.257931        -0.936201
 H         1.169932         2.533607         0.528733
 H        -0.201582         3.253171        -0.424724
 H         0.276755         4.454422         2.013497
 H        -1.011263         2.608951         3.803825
 H         0.024812         0.631871         2.526251
 H        -1.793641         0.440237         2.258208
 H        -2.318499         4.350023         2.390111
 H        -2.648437         0.907530         0.115003
 H        -1.772848         2.136337        -0.970312
