19
Iteration:  1751charge 0 multiplicity 1
 O        -0.313119         0.279261        -0.141069
 C        -0.650414         1.385333         0.628072
 C         0.404510         2.577120         0.858764
 C        -0.287535         3.391977         1.880695
 C        -1.186758         2.524734         2.685405
 C        -1.034085         1.077464         2.138088
 C        -1.849516         3.543501         1.753302
 O        -2.555201         3.057724         0.588287
 C        -1.876107         1.995664        -0.073213
 H         0.615317        -0.043092        -0.021438
 H         1.419235         2.166978         1.284680
 H         0.764124         3.056312        -0.089305
 H         0.272127         4.036024         2.530037
 H        -1.393445         2.637234         3.774782
 H        -0.142420         0.477892         2.589640
 H        -1.949908         0.429944         2.196726
 H        -2.294234         4.549520         2.210696
 H        -2.496788         1.108034        -0.224905
 H        -1.386878         2.302129        -1.072263
