19
Iteration:  1199charge 0 multiplicity 1
 O        -0.195979         0.376847        -0.204093
 C        -0.662841         1.414876         0.669096
 C         0.391455         2.498845         0.856099
 C        -0.328891         3.462039         1.736486
 C        -1.220275         2.522607         2.744289
 C        -1.006285         1.092648         2.161446
 C        -1.810170         3.462664         1.729065
 O        -2.594443         3.011673         0.673467
 C        -1.906833         1.952630        -0.060977
 H         0.631348         0.056330         0.128947
 H         1.313059         2.070587         1.344832
 H         0.516772         2.876446        -0.179764
 H         0.147606         4.339690         2.340159
 H        -1.287459         2.524879         3.876761
 H        -0.068244         0.699717         2.676620
 H        -1.872888         0.451977         2.283728
 H        -2.204745         4.477181         2.029209
 H        -2.592653         1.135513        -0.218655
 H        -1.650298         2.336924        -1.030577
