19
Iteration:  4227charge 0 multiplicity 1
 O        -0.132485         0.297242        -0.088770
 C        -0.658861         1.420386         0.577319
 C         0.302344         2.685143         0.408852
 C        -0.276387         3.556838         1.619960
 C        -1.037219         2.617177         2.656936
 C        -0.628674         1.276616         2.085418
 C        -1.858822         3.488027         1.805787
 O        -2.749832         2.894322         0.836278
 C        -2.161871         1.628584         0.344141
 H        -0.751544        -0.425449         0.145320
 H         1.360876         2.377740         0.519462
 H         0.052874         3.232525        -0.552953
 H         0.199142         4.634421         1.712170
 H        -0.983974         2.701417         3.757625
 H         0.333882         1.102288         2.584688
 H        -1.184566         0.383625         2.295342
 H        -2.286070         4.378800         2.476331
 H        -2.662249         0.803375         0.723843
 H        -2.360549         1.731681        -0.808677
