19
Iteration:  1220
 O        -0.291630         0.284492        -0.079003
 C        -0.630858         1.471614         0.534774
 C         0.403620         2.684933         0.817555
 C        -0.238863         3.496553         1.888044
 C        -1.162767         2.500693         2.683581
 C        -1.098385         1.146081         2.074547
 C        -1.797586         3.491617         1.783017
 O        -2.525526         2.891176         0.708830
 C        -1.920350         1.863667        -0.110452
 H         0.646770         0.101649         0.193320
 H         1.230794         2.100038         1.321416
 H         0.711389         3.189588        -0.112455
 H         0.291599         4.511821         2.240375
 H        -1.433085         2.647477         3.781759
 H        -0.324533         0.418487         2.442700
 H        -2.027680         0.668806         1.953889
 H        -2.479424         4.257599         2.247535
 H        -2.673974         1.109921        -0.320045
 H        -1.760518         2.377242        -1.084706
