19
Iteration:  4857
 O        -0.220915         0.330767        -0.167099
 C        -0.655991         1.417385         0.645269
 C         0.259013         2.622977         0.564293
 C        -0.350805         3.568349         1.504645
 C        -0.864295         2.678186         2.721068
 C        -0.927969         1.194022         2.191178
 C        -1.786408         3.489784         1.729702
 O        -2.699406         2.767744         0.940696
 C        -2.034158         1.779567         0.131445
 H         0.644637        -0.014842         0.089864
 H         1.308675         2.355057         0.869366
 H         0.174309         3.155087        -0.450943
 H         0.286702         4.455425         1.657548
 H        -0.645986         2.926967         3.746062
 H        -0.194685         0.630951         2.779989
 H        -1.815095         0.686649         2.280807
 H        -2.279895         4.268218         2.267882
 H        -2.676518         0.867283         0.196212
 H        -1.991039         2.143205        -0.868922
