19
Iteration:  4624
 O        -0.266677         0.234823        -0.145737
 C        -0.708524         1.434576         0.672249
 C         0.328185         2.687990         0.598554
 C        -0.285271         3.642593         1.656495
 C        -0.904726         2.643517         2.710698
 C        -0.907858         1.228421         2.199562
 C        -1.794955         3.423145         1.753729
 O        -2.626919         2.772693         0.834940
 C        -2.109978         1.768140         0.059095
 H         0.637268         0.547279        -0.382107
 H         1.258387         2.280201         0.973395
 H         0.440748         3.153188        -0.436897
 H         0.266884         4.600996         1.831098
 H        -0.843636         3.036295         3.680921
 H        -0.168869         0.459309         2.638160
 H        -1.792234         0.716640         2.198687
 H        -2.334900         4.168067         2.285922
 H        -2.821459         0.901745         0.088321
 H        -1.987026         2.123889        -0.909734
