19
Iteration:  2427charge 0 multiplicity 1
 O        -0.159109         0.211238        -0.015864
 C        -0.657458         1.389417         0.689047
 C         0.356705         2.664954         0.703939
 C        -0.277612         3.527843         1.722642
 C        -1.102627         2.535628         2.669862
 C        -0.935907         1.099282         2.093585
 C        -1.779830         3.451513         1.761907
 O        -2.645206         2.968157         0.743361
 C        -1.976072         2.013414        -0.042282
 H        -0.892942        -0.294122        -0.387596
 H         1.333717         2.289216         1.089226
 H         0.356208         3.067832        -0.266073
 H         0.196666         4.456425         1.939381
 H        -1.235624         2.588427         3.771576
 H        -0.036802         0.572987         2.520895
 H        -1.871038         0.525184         2.319612
 H        -2.301211         4.329173         2.235858
 H        -2.702974         1.221777        -0.130965
 H        -1.731098         2.246126        -1.116151
