19
Iteration:  4444charge 0 multiplicity 1
 O        -0.219748         0.328528        -0.224479
 C        -0.669869         1.363418         0.686667
 C         0.155145         2.652628         0.480877
 C        -0.319511         3.563482         1.660541
 C        -1.010058         2.607191         2.718617
 C        -0.760697         1.226626         2.251905
 C        -1.797777         3.449657         1.763898
 O        -2.554474         2.886745         0.810898
 C        -2.054843         1.756107         0.163105
 H         0.015914        -0.356749         0.423465
 H         1.266558         2.463757         0.378978
 H        -0.140929         3.012495        -0.495182
 H         0.148711         4.479566         1.869892
 H        -1.085613         2.914551         3.747171
 H         0.161043         0.953706         2.780305
 H        -1.630774         0.530460         2.536551
 H        -2.307713         4.306923         2.028674
 H        -2.840944         0.909856         0.282131
 H        -1.938412         1.968950        -0.849125
