19
Iteration:  3430charge 0 multiplicity 1
 O        -0.280440         0.294292        -0.110160
 C        -0.671081         1.439230         0.645832
 C         0.305643         2.634280         0.559089
 C        -0.341952         3.529545         1.613192
 C        -1.006938         2.635266         2.648727
 C        -0.650661         1.230279         2.203668
 C        -1.849576         3.441021         1.820073
 O        -2.698087         2.824158         0.826702
 C        -2.133520         1.808557         0.121103
 H         0.457518         0.407064        -0.753481
 H         1.346899         2.471077         0.940472
 H         0.279826         3.084762        -0.429030
 H         0.226021         4.442335         1.940202
 H        -0.964388         2.914340         3.706635
 H         0.461699         1.031697         2.561908
 H        -1.228914         0.291946         2.617070
 H        -2.369032         4.291627         2.207938
 H        -2.585132         0.772585         0.228415
 H        -2.038763         1.832461        -1.025194
