19
Iteration:  3105charge 0 multiplicity 1
 O        -0.124835         0.303920        -0.103091
 C        -0.694472         1.409096         0.591656
 C         0.283427         2.666454         0.559427
 C        -0.292559         3.534089         1.736699
 C        -1.007373         2.545510         2.669869
 C        -0.872888         1.142517         2.091070
 C        -1.843119         3.429608         1.853798
 O        -2.579863         3.018340         0.707287
 C        -2.170282         1.777602         0.127110
 H         0.535839         0.000479         0.548046
 H         1.300579         2.442075         0.655267
 H         0.118902         3.297883        -0.347349
 H         0.334517         4.284731         2.188206
 H        -1.066542         2.668443         3.777655
 H         0.013848         0.549610         2.517228
 H        -1.761470         0.598785         2.411794
 H        -2.307780         4.211181         2.382081
 H        -2.883469         0.976819         0.366523
 H        -2.076048         1.816466        -0.935041
