19
Iteration:  3325
 O        -0.297135         0.283069        -0.123512
 C        -0.622648         1.470388         0.622126
 C         0.244432         2.689009         0.584715
 C        -0.372006         3.551785         1.659344
 C        -0.993936         2.579755         2.713000
 C        -0.746713         1.161211         2.113771
 C        -1.889567         3.418651         1.794646
 O        -2.568452         2.961647         0.760424
 C        -2.061466         1.732350         0.197814
 H         0.660285         0.182803        -0.384581
 H         1.309724         2.488056         0.851361
 H         0.166946         3.214805        -0.441974
 H         0.136388         4.495662         1.950383
 H        -0.879155         2.623501         3.752752
 H         0.134936         0.638466         2.538653
 H        -1.533772         0.426912         2.204860
 H        -2.338775         4.328105         2.125620
 H        -2.568561         0.816503         0.657892
 H        -2.177072         1.691520        -0.874616
