19
Iteration:   453
 O        -0.186028         0.312599        -0.193950
 C        -0.658821         1.403204         0.645392
 C         0.269732         2.654104         0.748810
 C        -0.265694         3.461347         1.927563
 C        -1.142818         2.476031         2.824147
 C        -1.110275         1.067790         2.207127
 C        -1.803242         3.406688         1.794597
 O        -2.386800         3.136022         0.450754
 C        -2.003538         1.923432        -0.049459
 H         0.420616        -0.297068         0.306089
 H         1.319721         2.403663         0.848556
 H         0.333232         3.287470        -0.102281
 H         0.303970         4.181038         2.476183
 H        -1.487098         2.512423         3.903040
 H        -0.459156         0.338922         2.754107
 H        -2.105183         0.605528         2.118746
 H        -2.400479         4.266235         2.297501
 H        -2.608498         0.992076         0.079154
 H        -1.803116         1.888357        -1.185668
