19
Iteration:  3387charge 0 multiplicity 1
 O        -0.089159         0.309746        -0.061538
 C        -0.692105         1.407105         0.705594
 C         0.116753         2.767222         0.456094
 C        -0.332203         3.576920         1.661220
 C        -0.968116         2.524002         2.629565
 C        -0.745739         1.153523         2.193209
 C        -1.866732         3.395814         1.846820
 O        -2.529331         3.031349         0.736866
 C        -2.094148         1.666642         0.130932
 H        -0.833604        -0.222342        -0.444133
 H         1.209198         2.487136         0.557569
 H        -0.221320         3.201906        -0.489442
 H         0.290135         4.386989         2.156375
 H        -0.807117         2.840031         3.664447
 H         0.213229         0.727661         2.551378
 H        -1.465445         0.345311         2.537737
 H        -2.473596         4.113265         2.382997
 H        -2.819363         0.930900         0.506937
 H        -2.430572         1.899290        -0.914748
