19
Iteration:  3034
 O        -0.169706         0.285063        -0.024492
 C        -0.726432         1.382153         0.642008
 C         0.382375         2.511187         0.694200
 C        -0.341370         3.493303         1.543964
 C        -0.936258         2.666578         2.654866
 C        -0.871127         1.184050         2.069010
 C        -1.881614         3.467110         1.751991
 O        -2.722641         2.775357         0.994158
 C        -2.016221         2.018369        -0.024928
 H         0.190378         0.690790        -0.833808
 H         1.227067         2.164305         1.308553
 H         0.557976         2.676597        -0.341331
 H        -0.023523         4.525752         1.977488
 H        -1.010154         2.860837         3.766771
 H        -0.076249         0.526117         2.418637
 H        -1.847501         0.618467         2.201846
 H        -2.127704         4.467130         2.208922
 H        -2.541982         1.212552        -0.551848
 H        -1.623387         2.664012        -0.834894
