19
Iteration:  4708charge 0 multiplicity 1
 O        -0.408077         0.247748        -0.104551
 C        -0.641377         1.426209         0.602550
 C         0.251300         2.770771         0.522214
 C        -0.405004         3.628963         1.679021
 C        -0.921774         2.548225         2.689224
 C        -0.766744         1.242628         2.207573
 C        -1.832235         3.366525         1.844843
 O        -2.483778         2.908481         0.734468
 C        -2.021971         1.711874         0.113274
 H         0.444474        -0.153955         0.075758
 H         1.298648         2.552677         0.823322
 H         0.263461         3.258359        -0.433829
 H         0.077994         4.602341         1.951715
 H        -1.027878         2.711798         3.713513
 H         0.106067         0.805339         2.644254
 H        -1.731872         0.615059         2.393981
 H        -2.432480         4.146588         2.281016
 H        -2.722859         0.845457         0.375173
 H        -2.188098         1.830432        -1.015183
