19
Iteration:  2985
 O        -0.172968         0.226448         0.025023
 C        -0.703037         1.415681         0.606096
 C         0.141796         2.726306         0.571804
 C        -0.255510         3.527110         1.733431
 C        -0.996074         2.488293         2.710377
 C        -0.936933         1.153079         2.117716
 C        -1.786678         3.473553         1.825265
 O        -2.540368         2.934305         0.725301
 C        -1.981402         1.864518         0.078771
 H        -0.270550         0.300245        -0.940616
 H         1.234293         2.486994         0.483270
 H        -0.230511         3.239061        -0.346564
 H         0.194854         4.447576         1.962507
 H        -0.990625         2.638807         3.771660
 H        -0.039485         0.653144         2.514353
 H        -1.790685         0.521325         2.238439
 H        -2.298728         4.315290         2.331924
 H        -2.609397         0.959946         0.075306
 H        -1.800121         2.135850        -1.010202
