19
Iteration:   511
 O        -0.265238         0.304651        -0.126891
 C        -0.629587         1.409933         0.665617
 C         0.429379         2.526018         0.843349
 C        -0.318162         3.387450         1.893988
 C        -1.153396         2.543111         2.687725
 C        -1.046389         1.084843         2.068555
 C        -1.863583         3.482243         1.780287
 O        -2.551002         3.084949         0.580943
 C        -1.885584         1.954387        -0.082414
 H         0.537354        -0.068439         0.199815
 H         1.385608         2.201769         1.120863
 H         0.377277         3.275098         0.042269
 H         0.126984         4.236524         2.335485
 H        -1.170913         2.566027         3.758776
 H        -0.261270         0.622172         2.641970
 H        -2.035287         0.468918         2.222679
 H        -2.268250         4.378212         2.117411
 H        -2.555812         1.091809        -0.126353
 H        -1.705182         2.398364        -1.075861
