19
Iteration:  3267charge 0 multiplicity 1
 O        -0.095713         0.247777        -0.015814
 C        -0.658084         1.506904         0.597967
 C         0.310045         2.669573         0.517542
 C        -0.363729         3.493610         1.561269
 C        -0.947722         2.591632         2.735230
 C        -0.890604         1.165400         2.140533
 C        -1.867125         3.464826         1.808009
 O        -2.718721         2.811950         0.960025
 C        -2.001729         1.906500        -0.007509
 H        -0.720005        -0.182768        -0.606403
 H         1.357800         2.461304         1.047319
 H         0.461323         3.110125        -0.531669
 H         0.230622         4.363102         1.932001
 H        -0.626588         2.622307         3.847659
 H        -0.024920         0.651681         2.508976
 H        -1.848549         0.564558         2.224926
 H        -2.327900         4.428773         2.137737
 H        -2.853693         1.182622        -0.063713
 H        -1.822659         2.313868        -1.033763
