19
Iteration:   738charge 0 multiplicity 1
 O        -0.257115         0.334925        -0.085144
 C        -0.680136         1.419821         0.631314
 C         0.384450         2.618829         0.856946
 C        -0.312699         3.466166         1.906503
 C        -1.143340         2.446600         2.639224
 C        -0.998922         1.029690         2.033443
 C        -1.872449         3.503935         1.743942
 O        -2.508095         3.100357         0.573358
 C        -1.939628         1.912339        -0.051041
 H         0.538228        -0.018920         0.374832
 H         1.136899         1.965519         1.355810
 H         0.785866         2.914489        -0.075057
 H         0.064244         4.282495         2.417269
 H        -1.128933         2.471106         3.756409
 H         0.005848         0.629492         2.404382
 H        -1.817451         0.383708         2.234090
 H        -2.220575         4.400413         2.334178
 H        -2.755425         1.174985         0.115537
 H        -1.851358         2.130097        -1.069470
