19
Iteration:   914charge 0 multiplicity 1
 O        -0.141336         0.309468        -0.088323
 C        -0.658922         1.357244         0.594150
 C         0.258608         2.545031         0.740733
 C        -0.329743         3.403497         1.928864
 C        -1.183058         2.461840         2.683217
 C        -1.004881         1.055713         2.140566
 C        -1.845206         3.558645         1.793007
 O        -2.541053         3.088280         0.601040
 C        -1.921252         1.989392        -0.092019
 H         0.624157         0.020904         0.489430
 H         1.300972         2.280735         1.046747
 H         0.367149         3.204391        -0.103450
 H         0.465796         4.125855         2.247078
 H        -1.181335         2.698507         3.700724
 H        -0.074730         0.606196         2.590900
 H        -1.832214         0.414736         2.341375
 H        -2.413559         4.381520         2.189942
 H        -2.760037         1.190035        -0.203909
 H        -1.602982         2.316318        -1.175671
