19
Iteration:    88charge 0 multiplicity 1
 O        -0.147021         0.273826        -0.025097
 C        -0.691170         1.431023         0.596812
 C         0.295347         2.563264         0.714227
 C        -0.321500         3.430618         1.767832
 C        -1.046272         2.415114         2.798735
 C        -1.232537         1.105773         2.059899
 C        -1.854942         3.522095         1.850082
 O        -2.485937         3.040623         0.671068
 C        -1.847555         2.012705        -0.143155
 H         0.644515         0.092675         0.452084
 H         1.363554         2.259579         1.030848
 H         0.218261         3.045970        -0.232401
 H         0.196302         4.183114         2.222059
 H        -0.900088         2.589020         3.870514
 H        -0.594038         0.275902         2.453261
 H        -2.189773         0.733008         2.138482
 H        -2.295668         4.475074         2.174013
 H        -2.478840         1.204015        -0.243487
 H        -1.686734         2.401479        -1.140480
