19
Iteration:  2527charge 0 multiplicity 1
 O        -0.136827         0.220285         0.040056
 C        -0.679320         1.475321         0.501958
 C         0.297387         2.786345         0.593891
 C        -0.299308         3.567144         1.793676
 C        -1.088270         2.429076         2.644195
 C        -0.814932         1.065763         2.120987
 C        -1.782166         3.482902         1.785191
 O        -2.489592         3.026435         0.625292
 C        -2.198221         1.827198         0.128507
 H        -0.739206        -0.443521         0.429833
 H         1.352238         2.401146         0.809941
 H         0.326626         3.363170        -0.348001
 H         0.216072         4.511805         2.197241
 H        -1.250613         2.539912         3.786849
 H         0.080952         0.570527         2.624635
 H        -1.745826         0.466129         2.155937
 H        -2.455780         4.207384         2.260161
 H        -2.911644         1.044249         0.438082
 H        -2.293501         1.849094        -1.031394
