19
Iteration:  4437
 O        -0.184676         0.396803        -0.216376
 C        -0.679893         1.354128         0.638581
 C         0.128792         2.608510         0.477303
 C        -0.315707         3.542886         1.647353
 C        -0.964619         2.703354         2.729996
 C        -0.798335         1.174030         2.307919
 C        -1.796229         3.471011         1.788498
 O        -2.590548         2.881648         0.796444
 C        -2.017589         1.700620         0.159832
 H        -0.233452        -0.462893         0.272142
 H         1.135174         2.377228         0.418751
 H        -0.259078         3.129654        -0.420104
 H         0.336920         4.422854         1.722579
 H        -1.244165         2.963273         3.801206
 H         0.173808         0.687848         2.674322
 H        -1.549070         0.491764         2.558069
 H        -2.276447         4.412001         2.185438
 H        -2.777116         0.938311         0.251559
 H        -1.810016         1.990073        -0.944740
