19
Iteration:   467charge 0 multiplicity 1
 O        -0.202668         0.339259        -0.164388
 C        -0.705397         1.390915         0.663263
 C         0.285313         2.577199         0.814490
 C        -0.352187         3.402145         1.938325
 C        -1.176358         2.446807         2.677334
 C        -0.997774         1.119357         2.094640
 C        -1.845925         3.497646         1.781832
 O        -2.384359         3.161884         0.547758
 C        -1.928479         1.848437        -0.037756
 H         0.349846        -0.200136         0.381146
 H         1.214089         2.152656         1.167040
 H         0.397237         3.041276        -0.199449
 H         0.139286         4.231676         2.277210
 H        -1.222904         2.655083         3.752222
 H        -0.193067         0.565326         2.557794
 H        -1.956307         0.463869         2.309555
 H        -2.438791         4.281841         2.211174
 H        -2.819134         1.308369         0.036870
 H        -1.657551         2.156842        -1.028527
