19
Iteration:  4797charge 0 multiplicity 1
 O        -0.274154         0.184435         0.010256
 C        -0.619565         1.424997         0.615624
 C         0.188493         2.799406         0.466000
 C        -0.330361         3.597495         1.639866
 C        -0.946180         2.632747         2.715675
 C        -0.752955         1.148655         2.213906
 C        -1.859283         3.392794         1.825690
 O        -2.553752         2.907720         0.752153
 C        -2.020545         1.749361         0.142392
 H        -0.575684         0.283629        -0.906175
 H         1.288713         2.788711         0.256525
 H        -0.211386         3.259292        -0.431325
 H         0.192356         4.414653         2.099492
 H        -0.968992         2.754208         3.784979
 H         0.192611         0.733788         2.643228
 H        -1.615465         0.347140         2.301632
 H        -2.474929         4.231671         2.131721
 H        -2.742665         0.918765         0.273778
 H        -1.981326         1.900429        -0.975944
