19
Iteration:  1434charge 0 multiplicity 1
 O        -0.244313         0.318914        -0.110508
 C        -0.665440         1.429763         0.672472
 C         0.396368         2.502758         0.853629
 C        -0.293268         3.486502         1.839029
 C        -1.162681         2.446005         2.668782
 C        -0.943475         1.079558         2.107289
 C        -1.885933         3.502693         1.725923
 O        -2.598425         3.045548         0.595254
 C        -1.951534         1.995193        -0.057694
 H         0.693389         0.157684         0.191445
 H         1.263872         1.980496         1.371095
 H         0.677081         2.945805        -0.156860
 H         0.097527         4.424849         2.461841
 H        -1.212227         2.441263         3.822278
 H        -0.017897         0.665089         2.481527
 H        -1.775749         0.286966         2.293546
 H        -2.186439         4.473073         2.087884
 H        -2.710578         1.238455        -0.240781
 H        -1.517372         2.306531        -0.994012
