19
Iteration:  2113charge 0 multiplicity 1
 O        -0.311351         0.276574        -0.055032
 C        -0.725407         1.446632         0.667029
 C         0.451179         2.533474         0.859268
 C        -0.286883         3.455716         1.838405
 C        -1.233402         2.448126         2.644913
 C        -0.893896         1.087729         2.101881
 C        -1.780362         3.436912         1.705009
 O        -2.561780         3.127339         0.578795
 C        -1.968465         2.005529        -0.087485
 H         0.256605        -0.193822         0.600047
 H         1.246714         2.020290         1.359402
 H         0.927619         3.040501        -0.049145
 H         0.216189         4.319488         2.414369
 H        -1.464945         2.651497         3.750159
 H         0.112525         0.790077         2.562081
 H        -1.482346         0.162761         2.125297
 H        -2.459134         4.224439         2.195676
 H        -2.805233         1.275013        -0.226353
 H        -1.572925         2.341616        -1.074727
