19
Iteration:  4957
 O        -0.311741         0.338547        -0.169038
 C        -0.655513         1.456340         0.679056
 C         0.166907         2.705010         0.510686
 C        -0.199242         3.535509         1.701335
 C        -0.990461         2.656577         2.723642
 C        -0.797310         1.228434         2.174565
 C        -1.820654         3.484507         1.739568
 O        -2.606814         2.851366         0.752305
 C        -2.064388         1.593792         0.213227
 H         0.527372        -0.130334         0.018136
 H         1.248493         2.493997         0.488505
 H        -0.054919         3.289330        -0.443019
 H         0.444547         4.340643         2.095610
 H        -1.067226         2.995205         3.753601
 H         0.176355         0.839390         2.594673
 H        -1.483936         0.462451         2.309380
 H        -2.344970         4.369887         2.188032
 H        -2.690897         0.707111         0.409282
 H        -1.971188         1.729121        -0.857550
