19
Iteration:  4441
 O        -0.206891         0.361536        -0.225446
 C        -0.673504         1.351924         0.659706
 C         0.141492         2.630117         0.480184
 C        -0.328660         3.553037         1.660695
 C        -0.991143         2.647332         2.725339
 C        -0.773987         1.207788         2.279770
 C        -1.794089         3.447261         1.771651
 O        -2.564232         2.885775         0.809224
 C        -2.038075         1.729430         0.167050
 H        -0.099762        -0.376422         0.401625
 H         1.285221         2.407953         0.370656
 H        -0.236309         3.064601        -0.503945
 H         0.283675         4.529435         1.798437
 H        -1.186542         2.945796         3.730309
 H         0.139054         0.866982         2.734317
 H        -1.616959         0.490016         2.547705
 H        -2.313638         4.398354         2.076309
 H        -2.801733         0.962953         0.278828
 H        -1.850125         2.007544        -0.913277
