19
Iteration:  2390charge 0 multiplicity 1
 O        -0.152322         0.265461        -0.125432
 C        -0.723280         1.410406         0.595119
 C         0.292458         2.568270         0.693559
 C        -0.241189         3.495767         1.780508
 C        -1.011495         2.589317         2.765270
 C        -1.101995         1.191539         2.148392
 C        -1.783229         3.452486         1.814691
 O        -2.603546         2.888805         0.765263
 C        -1.948049         1.956161        -0.130630
 H         0.314227        -0.234032         0.563702
 H         1.351057         2.321821         0.915655
 H         0.377268         3.021042        -0.350843
 H         0.259032         4.480549         2.042040
 H        -1.070507         2.722927         3.847285
 H        -0.311302         0.551899         2.597313
 H        -2.142832         0.699615         2.286487
 H        -2.168313         4.427784         2.034823
 H        -2.825985         1.219863        -0.291184
 H        -1.721071         2.406164        -1.090748
