19
Iteration:  4695
 O        -0.411610         0.212416        -0.069421
 C        -0.676590         1.468825         0.645310
 C         0.183365         2.750728         0.542842
 C        -0.309670         3.628142         1.668201
 C        -0.881192         2.695563         2.822657
 C        -0.759766         1.204628         2.098487
 C        -1.866636         3.344480         1.894805
 O        -2.532835         2.853325         0.668746
 C        -2.017220         1.719510         0.063149
 H         0.574454         0.112815        -0.105660
 H         1.178836         2.440399         0.680155
 H         0.089940         3.232336        -0.397171
 H         0.287387         4.481835         2.073173
 H        -0.815738         2.931622         3.932021
 H         0.031995         0.530239         2.338326
 H        -1.737907         0.547015         2.394960
 H        -2.522724         4.153908         2.373264
 H        -2.606837         0.807994         0.111791
 H        -1.677484         2.021902        -1.020115
