19
Iteration:    20
 O        -0.353727         0.343146        -0.279463
 C        -0.641241         1.381656         0.790234
 C         0.419522         2.568712         0.843775
 C        -0.329600         3.614798         1.812689
 C        -1.084218         2.516158         2.734468
 C        -1.110032         1.020623         2.228725
 C        -1.846348         3.420318         1.769923
 O        -2.497802         3.035979         0.536939
 C        -1.829347         1.928966        -0.071835
 H         0.457792        -0.147903        -0.011465
 H         1.441726         2.239391         1.302190
 H         0.501586         2.900318        -0.163763
 H         0.249048         4.534220         2.285446
 H        -1.263974         2.693668         3.786966
 H        -0.366366         0.295814         2.700322
 H        -2.060426         0.587399         2.348824
 H        -2.408555         4.092704         2.418050
 H        -2.553702         1.168804        -0.211887
 H        -1.555292         2.218679        -1.086710
