19
Iteration:  1079
 O        -0.195254         0.342757        -0.230103
 C        -0.664329         1.377051         0.663402
 C         0.364158         2.579578         0.866642
 C        -0.320830         3.443097         1.900493
 C        -1.130951         2.480799         2.680762
 C        -0.988416         1.146050         2.195654
 C        -1.859555         3.451834         1.728358
 O        -2.526056         3.065615         0.566617
 C        -1.994488         1.899497        -0.032873
 H         0.541591        -0.182978         0.162659
 H         1.300273         2.163386         1.275771
 H         0.497684         3.114092        -0.094102
 H         0.208515         4.451983         2.166724
 H        -1.321645         2.666758         3.760448
 H        -0.130446         0.704368         2.775975
 H        -1.867340         0.525452         2.270260
 H        -2.392630         4.156454         2.308724
 H        -2.791839         1.190566        -0.254334
 H        -1.606082         2.202516        -1.001119
