19
Iteration:  4805charge 0 multiplicity 1
 O        -0.284106         0.171091         0.010111
 C        -0.653818         1.416701         0.674055
 C         0.194559         2.790288         0.417300
 C        -0.376225         3.563054         1.665698
 C        -0.978709         2.598138         2.724240
 C        -0.668737         1.162283         2.180791
 C        -1.839728         3.458163         1.805159
 O        -2.601693         2.903963         0.805635
 C        -2.022488         1.754016         0.087227
 H        -0.145168         0.244960        -0.944809
 H         1.217836         2.535278         0.519893
 H        -0.046216         3.229066        -0.523335
 H         0.104935         4.469358         2.093735
 H        -1.055365         2.684192         3.768008
 H         0.284922         0.888805         2.530073
 H        -1.495222         0.381746         2.512443
 H        -2.151867         4.446369         2.021330
 H        -2.727907         0.988762         0.148029
 H        -1.907151         2.068683        -1.023355
