19
Iteration:  2184
 O         0.041150         0.251224         0.059446
 C        -0.689940         1.439670         0.578286
 C         0.328248         2.506844         0.693727
 C        -0.245867         3.342783         1.840882
 C        -1.098153         2.536790         2.785475
 C        -1.136604         1.183889         2.090295
 C        -1.748560         3.460689         1.762388
 O        -2.656154         3.076538         0.679756
 C        -2.023281         2.010521        -0.162808
 H        -0.618767        -0.360033        -0.328932
 H         1.311339         2.059470         1.051261
 H         0.510631         3.114286        -0.183835
 H         0.239650         4.317355         2.137987
 H        -1.085980         2.660062         3.895541
 H        -0.508450         0.304665         2.328180
 H        -2.179114         0.748367         2.239928
 H        -2.174575         4.346890         2.243868
 H        -2.764657         1.207643        -0.353907
 H        -1.744149         2.642748        -1.115558
