19
Iteration:  1841charge 0 multiplicity 1
 O        -0.080903         0.401896        -0.105994
 C        -0.725636         1.393126         0.648515
 C         0.251660         2.495874         0.770314
 C        -0.278203         3.378719         1.942244
 C        -1.185765         2.493246         2.680665
 C        -1.091266         1.115727         2.086133
 C        -1.724412         3.490367         1.801471
 O        -2.443868         3.118338         0.507707
 C        -2.033454         1.908251        -0.026269
 H         0.464385        -0.091482         0.524930
 H         1.251638         2.039189         1.023663
 H         0.295086         3.149665        -0.086839
 H         0.363416         4.119285         2.431779
 H        -1.359202         2.667154         3.720409
 H        -0.334823         0.393812         2.482122
 H        -2.071471         0.566320         2.299810
 H        -2.226281         4.275761         2.178489
 H        -2.893985         1.296022         0.088434
 H        -1.874591         2.023762        -1.142679
