19
Iteration:  1206charge 0 multiplicity 1
 O        -0.218257         0.349056        -0.177628
 C        -0.718680         1.442066         0.684033
 C         0.438403         2.535595         0.830190
 C        -0.290738         3.544616         1.785897
 C        -1.258430         2.509075         2.746031
 C        -1.062969         1.071338         2.096759
 C        -1.769820         3.460375         1.755617
 O        -2.556776         2.935663         0.688117
 C        -1.936599         1.978295        -0.110809
 H         0.664076         0.048398         0.097780
 H         1.389488         2.187170         1.278320
 H         0.766138         3.007604        -0.103417
 H         0.264876         4.471832         2.179968
 H        -1.257216         2.679236         3.830476
 H        -0.158019         0.732109         2.615442
 H        -1.839464         0.359054         2.340831
 H        -2.279780         4.306823         2.171187
 H        -2.549798         1.017268        -0.029781
 H        -1.656787         2.198148        -1.212733
