19
Iteration:  3465charge 0 multiplicity 1
 O        -0.109716         0.320767        -0.139179
 C        -0.663454         1.397380         0.645357
 C         0.173638         2.639468         0.460897
 C        -0.365552         3.569285         1.511878
 C        -0.841564         2.660505         2.720250
 C        -0.886787         1.229530         2.163883
 C        -1.823463         3.438660         1.914126
 O        -2.702061         2.756033         0.934906
 C        -2.049544         1.823714         0.051693
 H         0.389634        -0.289690         0.455788
 H         1.288999         2.517560         0.641113
 H         0.118369         3.148484        -0.513344
 H         0.110191         4.497639         1.715309
 H        -0.685240         2.877706         3.708231
 H        -0.015195         0.679908         2.653435
 H        -1.872052         0.722030         2.365466
 H        -2.360180         4.286129         2.273360
 H        -2.700003         0.938228         0.131727
 H        -2.041103         2.342087        -0.981925
