19
Iteration:  3205charge 0 multiplicity 1
 O        -0.213042         0.296832        -0.157264
 C        -0.642704         1.373951         0.670012
 C         0.254577         2.627878         0.588751
 C        -0.331191         3.512129         1.676640
 C        -1.024271         2.524557         2.724670
 C        -0.769709         1.202038         2.171554
 C        -1.852576         3.447596         1.788752
 O        -2.689765         2.968649         0.779455
 C        -2.036897         1.866226         0.055958
 H         0.551930         0.004249         0.349138
 H         1.199127         2.246099         0.760822
 H         0.220760         3.060427        -0.406859
 H         0.406913         4.406287         1.784847
 H        -1.122023         2.767864         3.809099
 H         0.241372         0.774605         2.514506
 H        -1.423204         0.407164         2.484821
 H        -2.391161         4.291848         2.302624
 H        -2.797394         1.074708         0.104408
 H        -1.850862         2.124657        -0.981215
