19
Iteration:  3601
 O        -0.030093         0.214858        -0.016184
 C        -0.692098         1.357679         0.671048
 C        -0.023376         2.745286         0.431692
 C        -0.372381         3.563477         1.622914
 C        -0.861192         2.561732         2.621005
 C        -0.649836         1.126451         2.253054
 C        -1.834855         3.431882         1.859379
 O        -2.619273         3.021310         0.729299
 C        -2.221483         1.749296         0.197251
 H         0.343197         0.492996        -0.874476
 H         1.092163         2.626911         0.403400
 H        -0.451877         3.220966        -0.510117
 H         0.279137         4.451140         1.741753
 H        -0.827533         2.779459         3.737694
 H         0.263682         0.693161         2.551787
 H        -1.419140         0.506494         2.591787
 H        -2.261025         4.173100         2.450533
 H        -2.763568         0.882182         0.373669
 H        -2.234309         2.018117        -0.948845
