19
Iteration:  1453charge 0 multiplicity 1
 O        -0.202170         0.226562        -0.057241
 C        -0.601854         1.428137         0.563693
 C         0.407280         2.624687         0.753802
 C        -0.315503         3.395904         1.832083
 C        -1.201197         2.487350         2.703523
 C        -1.100936         1.151510         2.112963
 C        -1.837337         3.444353         1.801381
 O        -2.579610         3.036582         0.705205
 C        -1.871843         1.997755        -0.116567
 H         0.741111         0.062998         0.081420
 H         1.336545         2.320985         1.241109
 H         0.452451         3.164206        -0.214811
 H         0.397943         4.238117         2.078611
 H        -1.402852         2.870294         3.808267
 H        -0.455622         0.373822         2.562247
 H        -2.021308         0.622163         2.048409
 H        -2.306107         4.289343         2.392675
 H        -2.536047         1.085223        -0.206414
 H        -1.678287         2.461932        -1.175084
