19
Iteration:  2563charge 0 multiplicity 1
 O        -0.145965         0.379868        -0.223543
 C        -0.679014         1.367316         0.702325
 C         0.279413         2.485312         0.636386
 C        -0.370466         3.511690         1.642638
 C        -1.102168         2.624229         2.764334
 C        -0.839859         1.137719         2.309540
 C        -1.834668         3.529046         1.758536
 O        -2.555439         2.922476         0.729017
 C        -2.004444         1.851513         0.059609
 H        -0.949594        -0.120459        -0.492095
 H         1.200494         2.051451         0.984823
 H         0.361453         2.995198        -0.414185
 H         0.221702         4.364243         1.796817
 H        -1.067699         2.884749         3.759957
 H         0.112530         0.810256         2.746690
 H        -1.568356         0.459712         2.735605
 H        -2.368473         4.363389         2.182209
 H        -2.694190         1.051600        -0.110378
 H        -1.640622         2.279255        -0.962397
