19
Iteration:  2706
 O        -0.061610         0.326036        -0.115697
 C        -0.680605         1.371335         0.586835
 C         0.318840         2.628751         0.582253
 C        -0.324576         3.435729         1.699618
 C        -1.194919         2.586259         2.747883
 C        -0.742529         1.104896         2.171495
 C        -1.809231         3.474416         1.783069
 O        -2.502659         3.119662         0.580403
 C        -2.230833         1.764967         0.294332
 H        -0.685592        -0.107044        -0.751472
 H         1.147127         2.142202         0.944433
 H         0.346955         3.286686        -0.362248
 H         0.113248         4.314424         2.215507
 H        -1.294291         2.760759         3.859462
 H         0.267003         0.778727         2.469048
 H        -1.486625         0.310767         2.343094
 H        -2.297358         4.448166         2.236211
 H        -2.787692         1.004029         0.815413
 H        -2.550015         1.599043        -0.801326
