19
Iteration:  2036charge 0 multiplicity 1
 O        -0.124400         0.323053        -0.048785
 C        -0.748015         1.394339         0.616173
 C         0.334624         2.514101         0.775718
 C        -0.315183         3.332797         1.865798
 C        -1.226778         2.461186         2.667028
 C        -1.041206         1.068608         2.150582
 C        -1.820574         3.517982         1.771375
 O        -2.432691         3.198046         0.543288
 C        -2.022085         1.942893        -0.000380
 H         0.817608         0.515343        -0.098353
 H         1.238716         2.060510         1.090572
 H         0.584258         2.917460        -0.208656
 H         0.448420         4.044854         2.340312
 H        -1.348389         2.566415         3.783527
 H        -0.085383         0.659618         2.530835
 H        -1.899996         0.455024         2.308782
 H        -2.281296         4.492264         1.960937
 H        -2.809738         1.150725         0.105239
 H        -1.915698         2.080766        -1.089360
