19
Iteration:  3265
 O        -0.088640         0.247131        -0.018016
 C        -0.642670         1.499378         0.586176
 C         0.317990         2.673044         0.520509
 C        -0.357271         3.520175         1.567143
 C        -0.939870         2.591649         2.734824
 C        -0.914442         1.165057         2.130306
 C        -1.877986         3.457363         1.815983
 O        -2.717124         2.810600         0.969735
 C        -2.005237         1.894153        -0.002740
 H        -0.731396        -0.229240        -0.556867
 H         1.375598         2.432260         0.957437
 H         0.461753         3.083271        -0.491685
 H         0.192173         4.318370         1.955031
 H        -0.633120         2.656587         3.804965
 H        -0.058103         0.642414         2.488460
 H        -1.922838         0.658369         2.184283
 H        -2.297701         4.415365         2.093523
 H        -2.841196         1.222679        -0.025824
 H        -1.850951         2.318889        -1.055411
