19
Iteration:   925
 O        -0.132972         0.310875        -0.122951
 C        -0.751620         1.413408         0.675687
 C         0.284158         2.598517         0.740178
 C        -0.351416         3.345058         1.782623
 C        -1.230664         2.485440         2.784319
 C        -0.978591         1.052910         2.206921
 C        -1.819841         3.445706         1.742604
 O        -2.491660         3.123446         0.611299
 C        -1.913845         2.001085        -0.100065
 H         0.603139        -0.034062         0.385073
 H         1.232353         2.128862         1.045576
 H         0.397938         3.030139        -0.242957
 H         0.103548         4.218928         2.355969
 H        -1.319508         2.657898         3.812076
 H         0.023641         0.718547         2.563114
 H        -1.638378         0.218060         2.346108
 H        -2.228161         4.310579         2.181143
 H        -2.742171         1.246240        -0.377652
 H        -1.534098         2.511871        -1.079819
