19
Iteration:  1091charge 0 multiplicity 1
 O        -0.155197         0.408763        -0.190387
 C        -0.707324         1.324937         0.697767
 C         0.300768         2.531301         0.787849
 C        -0.352565         3.453955         1.765903
 C        -1.198937         2.576110         2.709954
 C        -0.992381         1.040080         2.139292
 C        -1.916468         3.493887         1.885128
 O        -2.472641         3.112115         0.612189
 C        -1.883831         1.861756        -0.103661
 H         0.479197        -0.164389         0.301765
 H         1.255310         2.148297         1.166758
 H         0.590028         2.882943        -0.228676
 H         0.232766         4.194691         2.423630
 H        -1.092627         2.653187         3.855953
 H        -0.080175         0.575626         2.559234
 H        -1.824822         0.357577         2.423067
 H        -2.449495         4.424648         2.178040
 H        -2.711103         1.118837        -0.104158
 H        -1.581913         2.157849        -1.126029
