19
Iteration:  3733charge 0 multiplicity 1
 O        -0.167618         0.222075         0.077218
 C        -0.644243         1.464844         0.596911
 C         0.216454         2.822460         0.326697
 C        -0.377178         3.614833         1.553205
 C        -0.897723         2.627958         2.681177
 C        -0.771217         1.216665         2.068206
 C        -1.821649         3.435357         1.844956
 O        -2.668132         2.724096         0.995360
 C        -2.108257         1.712450         0.156016
 H         0.123929         0.286704        -0.853682
 H         1.240506         2.550395         0.548082
 H        -0.083830         3.430762        -0.560997
 H         0.088204         4.608364         1.700741
 H        -0.555131         2.771792         3.672917
 H         0.053568         0.626955         2.478388
 H        -1.589225         0.564305         2.278130
 H        -2.328657         4.424730         2.243674
 H        -2.720259         0.879124         0.335555
 H        -2.245672         2.029557        -0.917446
