19
Iteration:  3347charge 0 multiplicity 1
 O        -0.085416         0.361090        -0.130084
 C        -0.722126         1.378714         0.564568
 C         0.153753         2.714417         0.498362
 C        -0.282958         3.533398         1.726460
 C        -1.001383         2.548848         2.662944
 C        -0.798549         1.118880         2.192053
 C        -1.778889         3.486034         1.805979
 O        -2.600719         3.018412         0.715434
 C        -2.199900         1.668371         0.201095
 H         0.614345        -0.095289         0.341664
 H         1.241138         2.396119         0.537111
 H        -0.096180         3.275713        -0.479827
 H         0.281805         4.315309         2.220173
 H        -0.953020         2.767389         3.673099
 H         0.179847         0.790526         2.587157
 H        -1.505930         0.404023         2.542707
 H        -2.301396         4.185946         2.406836
 H        -2.973957         0.949813         0.649969
 H        -2.182220         1.618172        -0.875487
