19
Iteration:   902charge 0 multiplicity 1
 O        -0.148821         0.239150        -0.098317
 C        -0.664732         1.429241         0.648162
 C         0.318139         2.633740         0.800823
 C        -0.251377         3.480986         1.913249
 C        -1.165192         2.489512         2.671446
 C        -1.061295         1.116241         2.012004
 C        -1.819673         3.529126         1.819052
 O        -2.541068         3.066543         0.624550
 C        -1.949229         1.888080        -0.087409
 H         0.685110        -0.111978         0.274970
 H         1.335794         2.232848         1.004859
 H         0.284799         3.067485        -0.180276
 H         0.225411         4.231289         2.522870
 H        -1.365966         2.338178         3.707040
 H        -0.410810         0.447954         2.610464
 H        -2.009697         0.670683         1.972530
 H        -2.423952         4.335297         2.361246
 H        -2.700251         1.027656        -0.030680
 H        -1.693655         2.130633        -1.201064
