19
Iteration:   865
 O        -0.209489         0.378833        -0.163174
 C        -0.657004         1.414072         0.698509
 C         0.312820         2.557052         0.779192
 C        -0.314739         3.429140         1.899316
 C        -1.147803         2.494785         2.748701
 C        -1.080993         1.147557         2.161116
 C        -1.834727         3.461182         1.776801
 O        -2.538867         3.015408         0.598172
 C        -1.856995         1.893785        -0.141363
 H         0.595357         0.075024         0.242232
 H         1.324173         2.137698         0.976582
 H         0.487745         3.015953        -0.233873
 H         0.333532         4.203329         2.330137
 H        -1.178517         2.724713         3.860239
 H        -0.362858         0.497743         2.668002
 H        -2.019395         0.513121         2.114421
 H        -2.329016         4.389471         2.169030
 H        -2.534640         1.060718        -0.266120
 H        -1.627371         2.364782        -1.097657
