19
Iteration:  1493
 O        -0.122002         0.324585        -0.074109
 C        -0.705559         1.483533         0.618716
 C         0.279776         2.559587         0.760828
 C        -0.259105         3.446180         1.853299
 C        -1.083971         2.544760         2.705573
 C        -1.216320         1.104360         2.137984
 C        -1.742487         3.428102         1.801849
 O        -2.543657         2.934729         0.686941
 C        -1.888407         1.995230        -0.191071
 H         0.722699         0.005477         0.323248
 H         1.282244         2.137910         1.020285
 H         0.422109         3.144348        -0.153145
 H         0.331740         4.180953         2.275904
 H        -1.424432         2.612298         3.710968
 H        -0.556665         0.314603         2.703067
 H        -2.294805         0.759319         2.226669
 H        -2.376552         4.357711         2.074614
 H        -2.646357         1.217617        -0.315863
 H        -1.647158         2.437662        -1.124178
