19
Iteration:  2868charge 0 multiplicity 1
 O        -0.160699         0.195891         0.152969
 C        -0.697319         1.466401         0.580892
 C         0.258103         2.655623         0.554135
 C        -0.309915         3.495073         1.683057
 C        -0.989054         2.511851         2.647218
 C        -0.808032         1.165853         2.052684
 C        -1.871305         3.450418         1.849490
 O        -2.634609         3.000203         0.793932
 C        -2.054484         1.893626        -0.034562
 H        -0.143931         0.070765        -0.797516
 H         1.331218         2.315234         0.803116
 H         0.153116         3.220678        -0.334016
 H         0.281143         4.210778         2.187870
 H        -0.830754         2.567072         3.726293
 H         0.180988         0.767509         2.392265
 H        -1.630839         0.445549         2.223721
 H        -2.357512         4.226679         2.469957
 H        -2.743852         0.980246        -0.031286
 H        -2.085499         2.448285        -0.980184
