19
Iteration:  4483
 O        -0.243254         0.193007         0.081927
 C        -0.699731         1.490860         0.607977
 C         0.274872         2.650097         0.559171
 C        -0.363930         3.570022         1.667727
 C        -0.897821         2.553125         2.656205
 C        -0.641336         1.224552         2.063891
 C        -1.857198         3.364813         1.793983
 O        -2.645838         2.992406         0.696348
 C        -2.185311         1.819374         0.163658
 H         0.492599         0.255371        -0.571658
 H         1.175391         2.250490         0.941626
 H         0.358012         3.108673        -0.460543
 H        -0.019641         4.635139         1.968602
 H        -0.981555         2.517128         3.734460
 H         0.293941         0.667737         2.268540
 H        -1.434489         0.551851         2.343887
 H        -2.404386         4.133163         2.425433
 H        -2.743534         1.003536         0.547970
 H        -2.303676         1.894106        -1.002734
