19
Iteration:  4231charge 0 multiplicity 1
 O        -0.175402         0.292042        -0.100923
 C        -0.610876         1.405324         0.600448
 C         0.272877         2.671879         0.419196
 C        -0.281898         3.597360         1.619444
 C        -1.020069         2.634873         2.691059
 C        -0.610132         1.274515         2.058704
 C        -1.874181         3.492655         1.821665
 O        -2.755474         2.918205         0.833913
 C        -2.126401         1.605925         0.306476
 H        -0.636636        -0.485512         0.273921
 H         1.344489         2.392787         0.472791
 H         0.026139         3.232985        -0.556770
 H         0.239851         4.461436         1.719821
 H        -1.126473         2.695261         3.776611
 H         0.399378         1.110488         2.544212
 H        -1.281890         0.423504         2.227766
 H        -2.298565         4.229114         2.411721
 H        -2.732268         0.708397         0.738125
 H        -2.265360         1.739095        -0.745977
