19
Iteration:  3736charge 0 multiplicity 1
 O        -0.204237         0.230050         0.064102
 C        -0.610420         1.440891         0.597337
 C         0.212036         2.837323         0.345985
 C        -0.357690         3.642315         1.536337
 C        -0.908298         2.628752         2.668606
 C        -0.768768         1.205455         2.065341
 C        -1.829860         3.437262         1.842421
 O        -2.673499         2.730260         0.991113
 C        -2.085401         1.682873         0.160766
 H         0.215666         0.363996        -0.793045
 H         1.243898         2.457779         0.617050
 H        -0.067350         3.456228        -0.514898
 H         0.092690         4.626002         1.729247
 H        -0.475072         2.797052         3.668287
 H         0.037093         0.693448         2.494456
 H        -1.685330         0.568170         2.301003
 H        -2.341675         4.333250         2.307139
 H        -2.676296         0.807580         0.428653
 H        -2.354008         2.079445        -0.913267
