19
Iteration:  3863charge 0 multiplicity 1
 O        -0.041543         0.401958        -0.105626
 C        -0.751168         1.323389         0.676167
 C         0.033887         2.656219         0.358596
 C        -0.353755         3.551303         1.588759
 C        -0.879844         2.602320         2.728966
 C        -0.540405         1.214474         2.262253
 C        -1.797803         3.484854         1.746996
 O        -2.781451         2.823777         0.855794
 C        -2.145015         1.727066         0.229928
 H        -0.570669        -0.393189        -0.364808
 H         1.050588         2.596004         0.422905
 H        -0.056715         3.207515        -0.567243
 H         0.334984         4.411743         1.570629
 H        -0.686629         3.072118         3.673336
 H         0.579583         0.993551         2.449251
 H        -1.194096         0.530132         2.720766
 H        -2.258819         4.467639         2.228314
 H        -2.955977         0.899238         0.357900
 H        -2.100369         1.941515        -0.791331
