19
Iteration:   194charge 0 multiplicity 1
 O        -0.209268         0.339979        -0.106708
 C        -0.677218         1.417534         0.658783
 C         0.207655         2.700274         0.664098
 C        -0.248539         3.374937         1.953055
 C        -1.209809         2.456948         2.714358
 C        -1.116066         1.082510         2.143995
 C        -1.785293         3.448246         1.824601
 O        -2.301836         3.054775         0.528595
 C        -1.915219         1.894550        -0.048020
 H         0.429496        -0.065794         0.447493
 H         1.241958         2.582108         0.508560
 H        -0.030761         3.294714        -0.195391
 H         0.289244         4.190340         2.398888
 H        -1.607943         2.619734         3.710421
 H        -0.325283         0.549658         2.694989
 H        -2.087528         0.569049         2.237128
 H        -2.343477         4.285794         2.203702
 H        -2.740277         1.152467         0.261424
 H        -1.935674         2.065340        -1.160264
