19
Iteration:  2779
 O        -0.194633         0.233329        -0.001441
 C        -0.639662         1.446824         0.626018
 C         0.358782         2.604820         0.559859
 C        -0.300898         3.528683         1.660166
 C        -0.997725         2.573844         2.611745
 C        -0.833503         1.124473         2.102385
 C        -1.858735         3.526545         1.817446
 O        -2.738478         2.931261         0.844653
 C        -2.073838         1.875101         0.077645
 H         0.443317         0.489483        -0.683350
 H         1.283367         2.118821         1.121718
 H         0.490858         3.046499        -0.437193
 H         0.452120         4.258468         2.055989
 H        -0.989716         2.673382         3.710577
 H         0.075362         0.622669         2.575654
 H        -1.719627         0.512252         2.305888
 H        -2.520241         4.477632         2.150258
 H        -2.663475         0.885975        -0.011642
 H        -2.017022         2.173804        -0.939734
