19
Iteration:  1839charge 0 multiplicity 1
 O        -0.080231         0.408017        -0.111992
 C        -0.722418         1.407212         0.629539
 C         0.245441         2.509527         0.745124
 C        -0.266321         3.361730         1.949060
 C        -1.203884         2.489018         2.683677
 C        -1.112690         1.123514         2.099541
 C        -1.710152         3.500855         1.808601
 O        -2.418743         3.108417         0.518243
 C        -2.041372         1.880709        -0.017243
 H         0.470732        -0.122829         0.530563
 H         1.295494         2.000984         1.058454
 H         0.308579         3.234642        -0.084688
 H         0.278966         4.146468         2.446103
 H        -1.325613         2.691443         3.740480
 H        -0.382409         0.359079         2.510765
 H        -2.029346         0.597703         2.276797
 H        -2.319613         4.363676         2.106668
 H        -2.927259         1.240291         0.060933
 H        -1.875066         2.021080        -1.141127
