19
Iteration:  3889
 O        -0.135610         0.392255        -0.216029
 C        -0.665699         1.380738         0.662974
 C         0.231756         2.593346         0.503943
 C        -0.368242         3.667015         1.487750
 C        -0.914279         2.655497         2.644554
 C        -0.636710         1.276719         2.182877
 C        -1.850472         3.436860         1.822034
 O        -2.767158         2.811489         0.928835
 C        -2.102325         1.649863         0.264059
 H        -0.718350        -0.408958        -0.197553
 H         1.318907         2.465979         0.720373
 H         0.195109         2.964870        -0.557321
 H         0.219618         4.561180         1.558309
 H        -0.828207         2.931476         3.719321
 H         0.382918         1.014297         2.547341
 H        -1.398504         0.544682         2.653264
 H        -2.248210         4.270152         2.259506
 H        -2.665387         0.809732         0.696859
 H        -2.376536         1.725406        -0.827600
