19
Iteration:  4936
 O        -0.212472         0.251307        -0.172038
 C        -0.680752         1.356684         0.653767
 C         0.241608         2.638104         0.556777
 C        -0.398000         3.585587         1.570721
 C        -0.972855         2.607566         2.686709
 C        -0.643154         1.161800         2.203939
 C        -1.866174         3.454482         1.800379
 O        -2.669579         2.954859         0.807732
 C        -2.108680         1.807141         0.131105
 H         0.366698        -0.205270         0.453053
 H         1.307915         2.562461         0.851800
 H         0.263536         2.962850        -0.525670
 H         0.081141         4.528403         1.893753
 H        -0.847485         2.865847         3.762304
 H         0.285729         0.835252         2.609602
 H        -1.417826         0.536624         2.620633
 H        -2.212428         4.410997         2.285188
 H        -2.674603         0.954899         0.373507
 H        -2.145979         1.968319        -0.947155
