19
Iteration:  3493
 O        -0.108628         0.267621        -0.004109
 C        -0.664748         1.452152         0.609824
 C         0.203770         2.779880         0.455220
 C        -0.273773         3.590023         1.594955
 C        -0.868623         2.629654         2.652679
 C        -0.860512         1.224198         2.024211
 C        -1.763185         3.494794         1.847820
 O        -2.752292         2.648345         1.001382
 C        -2.068547         1.797657         0.039070
 H        -0.700749        -0.458126         0.341775
 H         1.248748         2.567725         0.573038
 H         0.221295         3.425683        -0.422343
 H         0.169107         4.589774         1.919596
 H        -0.859603         2.799265         3.803794
 H        -0.006683         0.699996         2.399069
 H        -1.829916         0.734384         2.167272
 H        -2.243814         4.416944         2.144647
 H        -2.649057         0.837025         0.152321
 H        -2.255639         2.160175        -0.918084
