19
Iteration:  4744charge 0 multiplicity 1
 O        -0.025296         0.412148        -0.164744
 C        -0.719831         1.363753         0.672367
 C         0.150082         2.547172         0.503114
 C        -0.266006         3.416162         1.653342
 C        -1.078598         2.559312         2.641761
 C        -0.684770         1.206322         2.211477
 C        -1.797335         3.518472         1.738007
 O        -2.686654         3.074741         0.771627
 C        -2.201198         1.725411         0.204270
 H         0.106961        -0.350583         0.410572
 H         1.222830         2.146313         0.688029
 H         0.149296         2.975802        -0.553171
 H         0.245694         4.294611         1.982429
 H        -1.193787         2.617296         3.738272
 H         0.350048         1.023592         2.629363
 H        -1.244456         0.432176         2.616073
 H        -2.188068         4.380428         2.272052
 H        -2.938328         0.957122         0.656824
 H        -2.182012         1.761661        -0.855653
