19
Iteration:    76
 O        -0.125427         0.251732         0.029766
 C        -0.685240         1.428872         0.633789
 C         0.301640         2.594810         0.725976
 C        -0.300122         3.366878         1.868307
 C        -1.094177         2.470278         2.682643
 C        -1.134505         1.096363         2.026239
 C        -1.739572         3.472675         1.741207
 O        -2.584933         3.062374         0.695730
 C        -1.972716         2.048771        -0.134417
 H         0.732434         0.033115         0.491851
 H         1.356432         2.164717         1.016937
 H         0.527479         3.105553        -0.166348
 H         0.252336         4.206603         2.266524
 H        -1.097767         2.584427         3.747206
 H        -0.467359         0.292340         2.482313
 H        -2.102080         0.763239         1.909989
 H        -2.259868         4.216223         2.280760
 H        -2.755293         1.385108        -0.336325
 H        -1.561204         2.537134        -1.030523
