19
Iteration:  3654charge 0 multiplicity 1
 O        -0.335712         0.289767        -0.182200
 C        -0.609896         1.419447         0.606989
 C         0.369513         2.808095         0.475446
 C        -0.302821         3.657476         1.716421
 C        -0.941579         2.671617         2.645894
 C        -0.699227         1.210792         2.158972
 C        -1.858842         3.466938         1.733558
 O        -2.734381         2.766339         0.872053
 C        -2.168288         1.603157         0.242471
 H         0.476794        -0.165695         0.097445
 H         1.390123         2.555435         0.589976
 H         0.424969         3.290031        -0.502292
 H         0.301823         4.468565         2.169437
 H        -0.893896         2.790123         3.780563
 H         0.384371         0.923273         2.453268
 H        -1.482272         0.518040         2.393740
 H        -2.314975         4.293248         2.098311
 H        -2.569399         0.642904         0.564923
 H        -2.310196         1.791495        -0.846262
