19
Iteration:  3055
 O        -0.303002         0.201489        -0.143817
 C        -0.605910         1.406156         0.670659
 C         0.323279         2.563558         0.601944
 C        -0.318530         3.538995         1.606249
 C        -0.997982         2.628412         2.704212
 C        -0.833632         1.162836         2.291258
 C        -1.909989         3.421807         1.751785
 O        -2.764104         2.813575         0.865035
 C        -1.915213         2.067362        -0.020842
 H         0.375438         0.458402        -0.780836
 H         1.273316         2.151661         1.144377
 H         0.469203         3.023934        -0.341491
 H         0.194272         4.574252         1.838718
 H        -0.742271         2.689567         3.803640
 H         0.171967         0.938985         2.613811
 H        -1.551797         0.422599         2.695624
 H        -2.364266         4.232527         2.370642
 H        -2.379860         1.174187        -0.436482
 H        -1.527955         2.669477        -0.910810
