19
Iteration:  2350
 O        -0.247753         0.261747        -0.093114
 C        -0.626406         1.428121         0.654601
 C         0.445716         2.510432         0.753040
 C        -0.299534         3.440040         1.736493
 C        -1.130960         2.570733         2.754092
 C        -0.954063         1.155261         2.127183
 C        -1.877527         3.464156         1.779574
 O        -2.621270         3.041695         0.662191
 C        -1.994468         1.917626         0.005890
 H         0.253359         0.523202        -0.903435
 H         1.422329         2.024115         0.981372
 H         0.546290         3.007123        -0.162578
 H         0.096772         4.301477         2.153211
 H        -1.108761         2.716162         3.785387
 H        -0.127101         0.692305         2.672803
 H        -1.708756         0.421163         2.385590
 H        -2.191332         4.447496         2.037250
 H        -2.438154         0.976093         0.057796
 H        -1.834709         2.256576        -1.045238
