19
Iteration:  2859charge 0 multiplicity 1
 O        -0.212317         0.151169         0.160335
 C        -0.633976         1.509454         0.515744
 C         0.303170         2.672802         0.522503
 C        -0.327976         3.523718         1.718867
 C        -1.008657         2.494407         2.694235
 C        -0.837416         1.189646         2.041553
 C        -1.795724         3.460715         1.862949
 O        -2.706267         2.934014         0.833287
 C        -2.013516         1.928477        -0.034324
 H        -0.160055         0.098346        -0.799338
 H         1.325477         2.344148         0.639990
 H         0.380509         3.233353        -0.456669
 H         0.150500         4.431748         2.018267
 H        -0.948141         2.684981         3.752859
 H         0.051357         0.617191         2.398953
 H        -1.741882         0.537979         2.203945
 H        -2.362500         4.140453         2.379992
 H        -2.664980         1.033603        -0.032897
 H        -1.801079         2.218803        -1.050835
