19
Iteration:  2267
 O        -0.157301         0.347031        -0.103486
 C        -0.675584         1.366623         0.680934
 C         0.237209         2.531611         0.740695
 C        -0.279173         3.402828         1.884912
 C        -1.131782         2.522711         2.667264
 C        -0.960744         1.059384         2.057174
 C        -1.790046         3.595992         1.739299
 O        -2.449992         3.130284         0.553936
 C        -2.130189         1.818961         0.102679
 H         0.737991         0.181862         0.226735
 H         1.201933         2.211563         1.122391
 H         0.398390         2.957563        -0.305096
 H         0.289839         4.179135         2.274483
 H        -1.207473         2.583681         3.739900
 H        -0.028400         0.784185         2.546273
 H        -1.824822         0.437665         2.102771
 H        -2.324997         4.437297         2.125072
 H        -2.957552         1.056600         0.201230
 H        -2.037292         2.019508        -0.928402
