19
Iteration:   311
 O        -0.150498         0.288254        -0.004942
 C        -0.716023         1.449705         0.551508
 C         0.368641         2.510085         0.791778
 C        -0.299890         3.370875         1.728727
 C        -1.129965         2.486906         2.697100
 C        -1.144314         1.142692         2.051801
 C        -1.858744         3.465863         1.871778
 O        -2.552799         3.024212         0.726862
 C        -1.878837         2.060647        -0.152708
 H         0.568591         0.056473         0.628230
 H         1.319632         2.024353         1.097576
 H         0.810703         2.971666        -0.191882
 H         0.118450         4.235767         2.332198
 H        -0.852488         2.819483         3.663256
 H        -0.428977         0.392815         2.470783
 H        -2.172702         0.581027         1.813502
 H        -2.305894         4.300710         2.393766
 H        -2.579550         1.247379        -0.343610
 H        -1.554387         2.587997        -1.099865
