19
Iteration:  1168charge 0 multiplicity 1
 O        -0.181358         0.298524        -0.197819
 C        -0.643699         1.379778         0.684073
 C         0.336307         2.591769         0.795934
 C        -0.322680         3.529896         1.780031
 C        -1.170171         2.494469         2.711840
 C        -1.020157         1.030267         2.214867
 C        -1.848803         3.460294         1.804755
 O        -2.564154         3.074532         0.613504
 C        -1.893000         1.968422        -0.078288
 H         0.590752        -0.081989         0.315007
 H         1.368257         2.299437         1.019339
 H         0.350642         2.840454        -0.287482
 H         0.174463         4.314728         2.352246
 H        -1.291379         2.522413         3.822025
 H        -0.118217         0.525412         2.650527
 H        -1.877881         0.297691         2.358175
 H        -2.465844         4.331531         2.210941
 H        -2.655654         1.223715        -0.217785
 H        -1.636715         2.362369        -1.045466
