19
Iteration:  2088charge 0 multiplicity 1
 O        -0.230030         0.222799        -0.095143
 C        -0.669061         1.356630         0.681821
 C         0.258228         2.598099         0.708498
 C        -0.345587         3.413049         1.875808
 C        -1.239256         2.463562         2.765443
 C        -1.041324         1.087682         2.133392
 C        -1.817310         3.486027         1.824950
 O        -2.391034         3.204431         0.546119
 C        -1.877305         1.933905        -0.064774
 H         0.724507         0.117959         0.044435
 H         1.356523         2.369685         0.877356
 H         0.246364         3.037629        -0.325976
 H         0.250780         4.314844         2.229799
 H        -1.148888         2.649576         3.868185
 H        -0.249458         0.534309         2.704906
 H        -1.919455         0.428175         2.081243
 H        -2.441064         4.292166         2.183251
 H        -2.757855         1.248281        -0.133637
 H        -1.579685         2.164777        -1.054345
