19
Iteration:  3307charge 0 multiplicity 1
 O        -0.340576         0.201396        -0.138060
 C        -0.664730         1.392638         0.682049
 C         0.285431         2.723538         0.580868
 C        -0.342682         3.548967         1.709329
 C        -0.959119         2.580654         2.720890
 C        -0.655660         1.196101         2.240549
 C        -1.858981         3.461729         1.828328
 O        -2.684130         2.885366         0.712047
 C        -2.051193         1.792510         0.050370
 H         0.174354         0.625232        -0.872197
 H         1.281258         2.472542         0.883119
 H         0.447993         3.199455        -0.338657
 H         0.148915         4.438162         1.958298
 H        -0.960401         2.887640         3.768176
 H         0.423449         0.983023         2.501294
 H        -1.453281         0.481915         2.553856
 H        -2.448116         4.187769         2.370574
 H        -2.600086         0.854568         0.018246
 H        -1.900651         2.175237        -0.976507
