19
Iteration:  1955charge 0 multiplicity 1
 O        -0.033706         0.257790        -0.083008
 C        -0.672735         1.394055         0.598002
 C         0.385610         2.504488         0.829668
 C        -0.314583         3.418719         1.780207
 C        -1.167630         2.494222         2.665101
 C        -1.236573         1.113487         2.064899
 C        -1.778969         3.541661         1.724025
 O        -2.580917         3.027295         0.770326
 C        -1.946555         2.069948        -0.112425
 H         0.627360        -0.248403         0.424572
 H         1.313064         2.070226         1.282174
 H         0.601757         3.002706        -0.136507
 H         0.229922         4.255789         2.209577
 H        -1.144929         2.683638         3.729680
 H        -0.628391         0.397448         2.638582
 H        -2.242879         0.598640         2.120868
 H        -2.144440         4.468175         2.322414
 H        -2.669065         1.265670        -0.415182
 H        -1.565022         2.564886        -0.976103
