19
Iteration:  2731
 O        -0.138002         0.285539         0.002254
 C        -0.710409         1.320300         0.726982
 C         0.048640         2.726189         0.548031
 C        -0.286682         3.516582         1.801999
 C        -1.010910         2.531266         2.668108
 C        -0.770777         1.063780         2.157449
 C        -1.816730         3.484834         1.837914
 O        -2.442689         3.148411         0.503624
 C        -2.099593         1.727512         0.154056
 H        -0.661778         0.242000        -0.834344
 H         1.132825         2.457845         0.486251
 H        -0.392154         3.204368        -0.315848
 H         0.231743         4.325813         2.277669
 H        -0.862958         2.699266         3.737381
 H         0.203527         0.731027         2.445390
 H        -1.525138         0.311081         2.420995
 H        -2.462871         4.007923         2.398241
 H        -2.837833         0.987974         0.329176
 H        -1.999171         1.707969        -0.976553
