19
Iteration:  2116
 O        -0.314312         0.278129        -0.067912
 C        -0.709198         1.439181         0.657229
 C         0.477862         2.549962         0.878539
 C        -0.259183         3.439163         1.875355
 C        -1.218818         2.451116         2.664396
 C        -0.881257         1.111705         2.082319
 C        -1.814304         3.456767         1.689648
 O        -2.592245         3.123963         0.572485
 C        -1.973019         1.977074        -0.087910
 H         0.171854        -0.243359         0.576452
 H         1.239546         1.979647         1.397782
 H         0.881428         2.942820        -0.050727
 H         0.162505         4.229194         2.379836
 H        -1.324505         2.745434         3.672528
 H         0.026236         0.773286         2.602063
 H        -1.550614         0.192436         2.191386
 H        -2.437300         4.197553         2.152172
 H        -2.800548         1.293475        -0.227664
 H        -1.569780         2.420993        -1.096527
