19
Iteration:  4609
 O        -0.390781         0.295032        -0.078639
 C        -0.655080         1.419526         0.634472
 C         0.222436         2.659113         0.546339
 C        -0.298804         3.594633         1.666005
 C        -0.937975         2.651154         2.740930
 C        -0.833397         1.206847         2.199009
 C        -1.788115         3.455589         1.815675
 O        -2.620115         2.782391         0.822072
 C        -1.911930         1.766759        -0.008499
 H         0.492749         0.133521        -0.456855
 H         1.404708         2.500143         0.591458
 H         0.091601         3.083305        -0.451589
 H         0.068965         4.594964         1.936678
 H        -1.127713         2.666506         3.848950
 H         0.006597         0.733438         2.606661
 H        -1.785695         0.731591         2.637847
 H        -2.463712         4.344455         2.111630
 H        -2.572394         0.840041         0.009213
 H        -1.746010         2.140837        -1.054350
