19
Iteration:  3816charge 0 multiplicity 1
 O        -0.183339         0.218957        -0.114294
 C        -0.585523         1.476328         0.616446
 C         0.102384         2.822148         0.423672
 C        -0.423839         3.644676         1.556217
 C        -0.817527         2.621019         2.682181
 C        -0.669116         1.223664         2.107521
 C        -1.825799         3.447513         1.877135
 O        -2.683600         2.842227         0.841716
 C        -2.122509         1.594550         0.232246
 H        -0.197616        -0.358608         0.661582
 H         1.215667         2.730937         0.394623
 H        -0.048357         3.312336        -0.497387
 H         0.064491         4.605514         1.768532
 H        -0.729082         2.892092         3.722676
 H         0.296372         0.798629         2.389260
 H        -1.486388         0.565993         2.407100
 H        -2.253648         4.263050         2.389228
 H        -2.640340         0.724526         0.781952
 H        -2.479985         1.583188        -0.809894
