19
Iteration:  3925charge 0 multiplicity 1
 O        -0.232592         0.277417        -0.062599
 C        -0.640806         1.421639         0.596688
 C         0.168559         2.769808         0.423839
 C        -0.319733         3.626065         1.560252
 C        -0.862727         2.674803         2.668442
 C        -0.682855         1.288865         2.147834
 C        -1.800132         3.422976         1.872633
 O        -2.726473         2.723070         0.916644
 C        -2.104412         1.715880         0.117635
 H        -0.314523        -0.591613         0.401375
 H         1.334207         2.651822         0.444778
 H        -0.145886         3.163239        -0.549102
 H         0.135840         4.611640         1.856601
 H        -0.684903         2.762792         3.716052
 H         0.291363         0.899705         2.346429
 H        -1.505456         0.614153         2.614569
 H        -2.425931         4.192694         2.391876
 H        -2.542825         0.776083         0.291204
 H        -2.127919         1.926515        -1.027969
