19
Iteration:  2532charge 0 multiplicity 1
 O        -0.148462         0.223692         0.019618
 C        -0.644145         1.503661         0.532850
 C         0.330754         2.747953         0.645136
 C        -0.304237         3.543054         1.789690
 C        -1.067788         2.460378         2.635400
 C        -0.819016         1.070720         2.129350
 C        -1.789163         3.473306         1.747302
 O        -2.567946         3.044531         0.638924
 C        -2.165022         1.810042         0.117695
 H        -0.874363        -0.382465         0.242332
 H         1.341488         2.407313         0.669705
 H         0.441378         3.384624        -0.292003
 H         0.234538         4.365566         2.138639
 H        -1.222139         2.636368         3.644111
 H         0.069304         0.616802         2.509328
 H        -1.666650         0.403569         2.382287
 H        -2.502657         4.125649         2.265081
 H        -2.864332         1.024485         0.481316
 H        -2.214436         1.880220        -0.955270
