19
Iteration:  2300
 O        -0.132214         0.265458        -0.038876
 C        -0.608262         1.424807         0.626516
 C         0.224993         2.651629         0.591033
 C        -0.312005         3.389596         1.855373
 C        -1.133064         2.449084         2.736011
 C        -0.951654         1.151307         2.134518
 C        -1.830686         3.434380         1.808551
 O        -2.425706         3.161636         0.565896
 C        -2.050550         1.893285         0.031703
 H        -0.737787        -0.476453         0.153608
 H         1.263098         2.525969         0.873705
 H         0.252829         3.268005        -0.370985
 H         0.237860         4.257405         2.176591
 H        -1.318196         2.601813         3.817263
 H        -0.214943         0.530624         2.693712
 H        -1.835548         0.483256         2.112001
 H        -2.346024         4.292392         2.253877
 H        -2.721359         1.014919         0.268665
 H        -1.939206         2.004646        -1.024975
