19
Iteration:  4959charge 0 multiplicity 1
 O        -0.321469         0.346318        -0.166843
 C        -0.663383         1.451733         0.685401
 C         0.166908         2.723384         0.504202
 C        -0.191610         3.540645         1.699265
 C        -1.006450         2.662905         2.714069
 C        -0.786017         1.220568         2.181762
 C        -1.806303         3.466760         1.752563
 O        -2.595178         2.844447         0.747151
 C        -2.074399         1.581840         0.198925
 H         0.565546        -0.041980         0.057721
 H         1.256272         2.554187         0.468253
 H        -0.049868         3.245064        -0.451363
 H         0.493767         4.275115         2.140089
 H        -1.072148         3.066724         3.791212
 H         0.096604         0.865103         2.571683
 H        -1.599756         0.442638         2.315017
 H        -2.302487         4.394030         2.215208
 H        -2.599306         0.722348         0.461094
 H        -2.028203         1.707019        -0.895077
