19
Iteration:  2583
 O        -0.145786         0.366119        -0.216034
 C        -0.725400         1.328581         0.674302
 C         0.284593         2.566890         0.710644
 C        -0.263039         3.574411         1.677349
 C        -0.945534         2.660116         2.688817
 C        -0.968164         1.198315         2.287650
 C        -1.773636         3.494348         1.752680
 O        -2.705860         2.771835         0.829534
 C        -1.966469         1.891248        -0.034901
 H        -0.716488        -0.399680        -0.486163
 H         1.318803         2.348787         1.014383
 H         0.358045         2.856970        -0.382113
 H         0.253940         4.464325         1.980602
 H        -0.968593         2.878972         3.706564
 H        -0.180292         0.571823         2.811640
 H        -1.940394         0.735333         2.501920
 H        -2.197847         4.382814         2.008099
 H        -2.692747         1.089455        -0.226007
 H        -1.548763         2.352385        -1.024493
