19
Iteration:  2934
 O        -0.267454         0.308378        -0.145567
 C        -0.661631         1.392555         0.629205
 C         0.242886         2.706501         0.662374
 C        -0.326993         3.524930         1.805782
 C        -1.173365         2.453421         2.671243
 C        -0.679581         1.096355         2.150015
 C        -1.823407         3.523055         1.714919
 O        -2.405219         3.118045         0.528576
 C        -2.198846         1.658850         0.340793
 H         0.126286         0.729521        -0.947975
 H         1.305572         2.315758         0.913800
 H         0.354650         3.153168        -0.290182
 H         0.310639         4.273341         2.213267
 H        -1.429022         2.631462         3.708522
 H         0.315611         0.803461         2.534110
 H        -1.383460         0.250139         2.200316
 H        -2.358894         4.283192         2.152435
 H        -2.736094         1.139974         1.166877
 H        -2.523159         1.391043        -0.683265
