19
Iteration:  2010charge 0 multiplicity 1
 O        -0.320770         0.130449        -0.149009
 C        -0.642909         1.374004         0.670369
 C         0.407043         2.620061         0.855726
 C        -0.383237         3.526111         1.857293
 C        -1.221715         2.439379         2.719965
 C        -0.909034         1.038616         2.160863
 C        -1.856249         3.488242         1.784572
 O        -2.494627         3.208901         0.517523
 C        -1.904635         2.000127        -0.014526
 H         0.622450        -0.047601        -0.250393
 H         1.416652         2.205477         1.243740
 H         0.449603         3.023434        -0.183371
 H         0.171842         4.336861         2.215788
 H        -1.565405         2.434927         3.721480
 H        -0.022796         0.530429         2.578478
 H        -1.806809         0.389695         2.260851
 H        -2.310035         4.421672         2.104876
 H        -2.626970         1.184420        -0.294906
 H        -1.394064         2.314373        -0.912716
