19
Iteration:  3835
 O        -0.120073         0.271515        -0.017914
 C        -0.677992         1.411332         0.566271
 C         0.105264         2.820972         0.267897
 C        -0.395132         3.661093         1.624497
 C        -0.833047         2.625050         2.637596
 C        -0.678334         1.252232         2.118391
 C        -1.886961         3.377407         1.936608
 O        -2.561369         2.809086         0.843930
 C        -2.163318         1.630753         0.275699
 H        -0.638895        -0.482817         0.344336
 H         1.290222         2.729123         0.373473
 H        -0.112271         3.341654        -0.714607
 H         0.089839         4.586652         1.865017
 H        -0.578375         2.984128         3.677778
 H         0.219421         0.799204         2.478941
 H        -1.648211         0.684345         2.346992
 H        -2.495850         4.072709         2.443784
 H        -2.831293         0.843724         0.509323
 H        -2.262595         1.859148        -0.866611
