19
Iteration:  3945charge 0 multiplicity 1
 O        -0.083075         0.284520        -0.037578
 C        -0.683586         1.419998         0.622584
 C         0.058448         2.652587         0.357210
 C        -0.397364         3.551088         1.534529
 C        -0.869982         2.621003         2.684098
 C        -0.580341         1.219213         2.190580
 C        -1.875732         3.450032         1.809987
 O        -2.710620         2.825528         0.991361
 C        -2.152672         1.828379         0.092275
 H         0.107943        -0.420038         0.600285
 H         1.119924         2.334081         0.411164
 H        -0.303950         3.128796        -0.544278
 H         0.220291         4.469021         1.756248
 H        -0.716234         2.936208         3.709311
 H         0.374460         0.775415         2.469985
 H        -1.263424         0.388278         2.632492
 H        -2.263845         4.372370         2.072511
 H        -2.925854         1.087345        -0.151751
 H        -1.872611         2.314346        -0.908671
