19
Iteration:   615
 O        -0.314613         0.384870        -0.184962
 C        -0.625137         1.391980         0.729681
 C         0.318451         2.587005         0.758362
 C        -0.313560         3.362799         1.835429
 C        -1.201022         2.557553         2.747171
 C        -1.027142         1.033679         2.215573
 C        -1.868721         3.456168         1.800502
 O        -2.430887         3.029949         0.561655
 C        -1.861168         1.939305        -0.120266
 H         0.412160        -0.211600         0.070825
 H         1.357523         2.519100         1.157814
 H         0.487583         3.260986        -0.059081
 H         0.237536         4.357990         2.224238
 H        -1.236607         2.648538         3.842778
 H        -0.284058         0.426209         2.868488
 H        -1.941689         0.515681         2.317139
 H        -2.202877         4.436787         2.124973
 H        -2.689271         1.239135        -0.342042
 H        -1.510227         2.286290        -1.043085
