19
Iteration:  1620charge 0 multiplicity 1
 O        -0.141339         0.350678        -0.108761
 C        -0.699395         1.413629         0.612899
 C         0.351284         2.554225         0.768133
 C        -0.306644         3.345858         1.886469
 C        -1.230143         2.477547         2.704647
 C        -1.032413         1.105110         2.122692
 C        -1.836572         3.470817         1.772637
 O        -2.415807         3.178978         0.529953
 C        -2.034859         1.862278         0.027428
 H         0.687475         0.101095         0.354407
 H         1.295815         2.179628         1.094245
 H         0.309211         3.120057        -0.151961
 H         0.191938         4.154270         2.378466
 H        -1.369105         2.547129         3.737014
 H        -0.049722         0.678484         2.505012
 H        -1.871220         0.352183         2.173239
 H        -2.245911         4.455875         2.189966
 H        -2.903284         1.154710         0.124458
 H        -1.897306         2.092819        -1.096591
