19
Iteration:  1984
 O        -0.391268         0.312776        -0.058757
 C        -0.610783         1.518423         0.625260
 C         0.378068         2.610092         0.833899
 C        -0.311060         3.407551         1.894458
 C        -1.191670         2.483158         2.722862
 C        -1.049485         1.187570         2.136254
 C        -1.802424         3.459303         1.798165
 O        -2.476723         2.962592         0.587296
 C        -1.829253         1.944949        -0.191624
 H         0.311875        -0.329634         0.006908
 H         1.381381         1.971690         0.994761
 H         0.302600         3.123690        -0.127978
 H         0.343923         4.097766         2.502324
 H        -1.279573         2.688042         3.824954
 H        -0.216581         0.595252         2.556637
 H        -1.959353         0.488996         2.105604
 H        -2.496940         4.254906         2.218598
 H        -2.382302         1.050175        -0.398928
 H        -1.357370         2.384806        -1.177375
