19
Iteration:  3846charge 0 multiplicity 1
 O        -0.076537         0.301427        -0.039514
 C        -0.660100         1.439211         0.655985
 C         0.021065         2.740509         0.389564
 C        -0.358790         3.623040         1.565322
 C        -0.819392         2.659170         2.648920
 C        -0.642915         1.232921         2.128768
 C        -1.841588         3.420064         1.890212
 O        -2.647976         2.858768         0.872191
 C        -2.161942         1.623430         0.176234
 H        -0.716981        -0.441462         0.084100
 H         1.166688         2.506635         0.187303
 H        -0.406638         3.165024        -0.577755
 H         0.036614         4.585040         1.814530
 H        -0.779817         2.810724         3.771022
 H         0.312170         0.808193         2.390954
 H        -1.355473         0.426294         2.539729
 H        -2.348490         4.175612         2.396450
 H        -2.797239         0.786657         0.386741
 H        -2.179936         1.814265        -0.974589
