19
Iteration:   919charge 0 multiplicity 1
 O        -0.135435         0.316087        -0.104256
 C        -0.694835         1.356760         0.625168
 C         0.276826         2.577617         0.729936
 C        -0.358354         3.363964         1.874045
 C        -1.200457         2.476253         2.722827
 C        -0.991394         1.044094         2.187484
 C        -1.828994         3.507039         1.763263
 O        -2.519369         3.105889         0.599621
 C        -1.908989         1.999024        -0.091731
 H         0.574537         0.067916         0.501910
 H         1.224994         2.146753         1.111025
 H         0.330413         3.207445        -0.207151
 H         0.364785         4.097513         2.225602
 H        -1.218361         2.780668         3.817031
 H         0.003783         0.713966         2.507256
 H        -1.807393         0.241536         2.353262
 H        -2.361218         4.404246         2.184748
 H        -2.692110         1.311754        -0.324634
 H        -1.704978         2.438247        -1.038249
