19
Iteration:  4953charge 0 multiplicity 1
 O        -0.292688         0.322922        -0.173200
 C        -0.643127         1.447110         0.666165
 C         0.175431         2.684244         0.514081
 C        -0.232252         3.528034         1.709214
 C        -0.967049         2.644377         2.718120
 C        -0.784670         1.246149         2.173313
 C        -1.833399         3.515493         1.729301
 O        -2.626507         2.862968         0.760256
 C        -2.054695         1.630444         0.232396
 H         0.473820        -0.236196         0.006697
 H         1.234608         2.369788         0.523813
 H        -0.047103         3.285968        -0.366105
 H         0.307326         4.449282         1.973293
 H        -1.035869         2.835986         3.771836
 H         0.234711         0.829527         2.600324
 H        -1.472591         0.376464         2.377744
 H        -2.413519         4.302884         2.107283
 H        -2.807657         0.746564         0.356283
 H        -1.928973         1.775199        -0.860736
