19
Iteration:  3996
 O        -0.251729         0.347352        -0.179872
 C        -0.641447         1.497091         0.635086
 C         0.242986         2.756165         0.452979
 C        -0.337822         3.571020         1.578173
 C        -0.876388         2.703328         2.687834
 C        -0.790238         1.261472         2.201133
 C        -1.795145         3.499889         1.749854
 O        -2.651242         2.679259         0.941844
 C        -2.113095         1.619522         0.210624
 H        -0.588539        -0.543650         0.094386
 H         1.328730         2.631265         0.690870
 H         0.072979         3.183739        -0.592313
 H         0.170102         4.502495         1.668519
 H        -0.648520         2.927422         3.752054
 H         0.337741         0.950498         2.551943
 H        -1.525513         0.547660         2.413592
 H        -2.408133         4.261166         2.178927
 H        -2.636664         0.624259         0.519357
 H        -2.155925         1.645120        -0.859546
