19
Iteration:  3289
 O        -0.228439         0.268692        -0.044992
 C        -0.686015         1.397786         0.658531
 C         0.232047         2.568338         0.634853
 C        -0.298511         3.597769         1.661284
 C        -0.988621         2.616699         2.654932
 C        -0.653486         1.176238         2.182664
 C        -1.889972         3.377950         1.786216
 O        -2.727619         2.848917         0.836950
 C        -1.979481         1.916496         0.012163
 H        -0.455865         0.331837        -1.008502
 H         1.340786         2.165848         0.617091
 H         0.093688         2.984118        -0.437232
 H         0.238626         4.512067         2.050749
 H        -1.094553         2.843065         3.790053
 H         0.373147         0.991676         2.410706
 H        -1.422712         0.502304         2.597954
 H        -2.358349         4.302881         2.200842
 H        -2.854884         1.284971        -0.232222
 H        -1.632310         2.431702        -0.940911
