19
Iteration:  2689
 O        -0.110266         0.333672        -0.222643
 C        -0.639195         1.434816         0.627893
 C         0.352691         2.591176         0.737646
 C        -0.264121         3.503523         1.804696
 C        -1.080355         2.541515         2.627850
 C        -0.850471         1.193086         2.145266
 C        -1.834881         3.568302         1.698453
 O        -2.623620         3.032757         0.636316
 C        -2.168332         1.687700         0.257824
 H        -0.905178        -0.192808        -0.503735
 H         1.447864         2.224913         1.017775
 H         0.452660         2.990933        -0.239895
 H         0.371534         4.302552         2.129169
 H        -1.055380         2.568789         3.730299
 H         0.098873         0.880824         2.629139
 H        -1.595776         0.420329         2.383790
 H        -2.253582         4.376867         2.110911
 H        -2.854181         0.986392         0.880848
 H        -2.376909         1.404973        -0.766998
