19
Iteration:   234charge 0 multiplicity 1
 O        -0.150801         0.293245        -0.108545
 C        -0.676288         1.372610         0.632189
 C         0.317962         2.557874         0.833072
 C        -0.276030         3.444665         1.885226
 C        -1.114680         2.460662         2.628595
 C        -1.016869         1.012822         2.141938
 C        -1.888097         3.523346         1.744665
 O        -2.513880         3.202445         0.559925
 C        -2.028774         1.953077        -0.040297
 H         0.717931        -0.072721         0.233189
 H         1.243965         2.124378         1.352917
 H         0.700520         3.046477        -0.205498
 H         0.375724         4.303912         2.391260
 H        -1.305435         2.601979         3.645925
 H        -0.131111         0.486702         2.567050
 H        -1.879318         0.255522         2.338288
 H        -2.481145         4.173317         2.304210
 H        -2.721216         1.157785         0.122389
 H        -1.927762         2.158971        -1.092303
