19
Iteration:  1416charge 0 multiplicity 1
 O        -0.274099         0.401509        -0.254240
 C        -0.687561         1.387946         0.703044
 C         0.315571         2.512966         0.874714
 C        -0.345470         3.407598         1.820508
 C        -1.207303         2.542457         2.766401
 C        -0.913891         1.055167         2.217311
 C        -1.810318         3.477764         1.721922
 O        -2.493430         3.076561         0.567914
 C        -1.916623         1.906559        -0.093716
 H         0.529338        -0.032176         0.157638
 H         1.243241         2.171186         1.318261
 H         0.690566         3.090877         0.053645
 H         0.175817         4.208781         2.242181
 H        -1.347877         2.791289         3.735065
 H         0.082856         0.806251         2.665489
 H        -1.748336         0.401814         2.507171
 H        -2.441067         4.203732         2.219543
 H        -2.674031         1.100849        -0.110293
 H        -1.682144         2.185689        -1.147457
