19
Iteration:  3530charge 0 multiplicity 1
 O        -0.148008         0.326263        -0.149172
 C        -0.659331         1.302924         0.685068
 C         0.163733         2.651494         0.542880
 C        -0.453190         3.610986         1.479210
 C        -0.884663         2.659441         2.660445
 C        -0.627114         1.187727         2.277458
 C        -1.897391         3.435056         1.838915
 O        -2.710349         2.850133         0.866780
 C        -2.043003         1.821481         0.131947
 H        -0.854320         0.053344        -0.765793
 H         1.168609         2.367768         0.942180
 H         0.227263         2.882953        -0.502539
 H         0.181598         4.437830         1.677847
 H        -0.751371         2.848457         3.663405
 H         0.481741         0.874359         2.633905
 H        -1.255383         0.309497         2.758113
 H        -2.361804         4.325458         2.299584
 H        -2.836837         0.969864         0.113538
 H        -1.691202         2.135318        -0.892732
