19
Iteration:  2578charge 0 multiplicity 1
 O        -0.148008         0.368181        -0.247543
 C        -0.749364         1.312175         0.689108
 C         0.245885         2.583445         0.728970
 C        -0.275056         3.552927         1.637772
 C        -0.977124         2.678846         2.673634
 C        -0.961134         1.158554         2.358659
 C        -1.747380         3.470362         1.730871
 O        -2.664586         2.813112         0.836633
 C        -1.927512         1.885456        -0.049952
 H        -0.710309        -0.331715        -0.572191
 H         1.328079         2.465378         0.994087
 H         0.406123         2.800484        -0.308632
 H         0.221372         4.484437         2.008373
 H        -1.104340         3.047939         3.768875
 H        -0.057769         0.636833         2.688100
 H        -1.850755         0.524591         2.579966
 H        -2.335199         4.405054         2.121286
 H        -2.771595         1.151775        -0.148501
 H        -1.654269         2.268162        -0.988659
