19
Iteration:  2150
 O        -0.194652         0.335151        -0.213652
 C        -0.644313         1.394046         0.673831
 C         0.368074         2.570701         0.774604
 C        -0.288089         3.485225         1.779463
 C        -1.244679         2.556927         2.756152
 C        -1.191857         1.129727         2.128174
 C        -1.752107         3.494798         1.731994
 O        -2.443487         2.963161         0.728201
 C        -1.867747         1.926005        -0.016933
 H        -0.318188        -0.528164         0.199732
 H         1.300394         2.124936         1.177006
 H         0.581034         2.770613        -0.249258
 H         0.188239         4.348744         2.112819
 H        -1.261387         2.820710         3.785965
 H        -0.528019         0.476957         2.710031
 H        -2.288221         0.794080         2.048167
 H        -2.222100         4.281867         2.229614
 H        -2.571941         1.144748        -0.338267
 H        -1.448459         2.365891        -1.043660
