19
Iteration:  1644
 O        -0.377094         0.320907        -0.247789
 C        -0.700452         1.391939         0.714698
 C         0.325874         2.634230         0.887992
 C        -0.326457         3.536170         1.909904
 C        -1.147823         2.492128         2.763828
 C        -0.963631         1.061111         2.218712
 C        -1.779741         3.476600         1.688194
 O        -2.428294         3.034241         0.501529
 C        -1.853406         1.892555        -0.055693
 H         0.464735        -0.157329        -0.004474
 H         1.272850         2.236927         1.282158
 H         0.342714         3.168167        -0.060685
 H         0.195856         4.329197         2.405384
 H        -1.410583         2.665245         3.849852
 H        -0.135450         0.491009         2.538640
 H        -1.918498         0.392941         2.185528
 H        -2.588863         4.159798         2.297259
 H        -2.711277         1.141113        -0.192755
 H        -1.511634         2.137424        -1.107854
