19
Iteration:  1832charge 0 multiplicity 1
 O        -0.083994         0.401567        -0.136051
 C        -0.737319         1.436193         0.580641
 C         0.271373         2.602927         0.706870
 C        -0.217119         3.320382         1.947376
 C        -1.249656         2.467751         2.745658
 C        -1.166961         1.116312         2.139245
 C        -1.738861         3.560469         1.776882
 O        -2.330342         3.097713         0.573625
 C        -2.061238         1.787782        -0.021014
 H         0.427167        -0.161635         0.463772
 H         1.148457         2.129843         0.953161
 H         0.419588         3.276909        -0.122068
 H         0.173653         4.221010         2.450007
 H        -1.258170         2.639254         3.811209
 H        -0.469646         0.476872         2.679863
 H        -2.194982         0.561725         2.084666
 H        -2.314731         4.410208         1.974571
 H        -2.838534         1.015128         0.055803
 H        -1.888623         2.006111        -1.073430
