19
Iteration:  3876charge 0 multiplicity 1
 O        -0.054602         0.420714        -0.191115
 C        -0.665930         1.388036         0.713572
 C         0.167672         2.619904         0.436799
 C        -0.338950         3.498393         1.497231
 C        -0.922873         2.719659         2.633421
 C        -0.553353         1.216399         2.279955
 C        -1.871850         3.473684         1.778866
 O        -2.736431         2.853962         0.924640
 C        -2.242345         1.671994         0.241567
 H        -0.687396        -0.285883        -0.346614
 H         1.121908         2.213650         0.493667
 H        -0.095710         2.891558        -0.605604
 H         0.038125         4.401294         1.888432
 H        -0.797858         2.945770         3.719375
 H         0.565641         1.053088         2.571379
 H        -1.117267         0.360035         2.682869
 H        -2.423773         4.351490         2.199809
 H        -2.964057         0.768752         0.282837
 H        -2.082210         1.910705        -0.800027
