19
Iteration:   529
 O        -0.252255         0.315400        -0.143476
 C        -0.698965         1.425992         0.638173
 C         0.291729         2.624865         0.747166
 C        -0.313415         3.501326         1.856272
 C        -1.203280         2.479004         2.769184
 C        -1.148133         1.106125         2.157182
 C        -1.739626         3.495651         1.768170
 O        -2.427122         2.971045         0.677874
 C        -1.848181         1.938952        -0.135458
 H         0.589278         0.051266         0.178914
 H         1.156035         2.128721         1.329001
 H         0.612928         2.923280        -0.242053
 H         0.316477         4.223476         2.283356
 H        -1.283426         2.539700         3.895942
 H        -0.393853         0.364417         2.474114
 H        -2.119377         0.737969         2.015703
 H        -2.407717         4.289249         2.257947
 H        -2.551786         1.076963        -0.409753
 H        -1.366083         2.281113        -1.149176
