19
Iteration:  3799
 O        -0.185565         0.348042        -0.137787
 C        -0.708939         1.354154         0.667372
 C         0.130408         2.708116         0.418902
 C        -0.312527         3.592681         1.576718
 C        -0.913501         2.671646         2.642781
 C        -0.521866         1.246470         2.175096
 C        -1.873323         3.435126         1.770487
 O        -2.723713         2.832243         0.869961
 C        -2.156468         1.685638         0.283323
 H         0.270359        -0.375042         0.316832
 H         1.177885         2.444494         0.426203
 H        -0.096802         3.117265        -0.646499
 H         0.148288         4.563858         1.852428
 H        -0.839609         2.769871         3.723402
 H         0.523263         0.942828         2.550902
 H        -1.176387         0.457666         2.586225
 H        -2.585587         4.248093         2.247932
 H        -2.795139         0.814480         0.396410
 H        -2.042896         1.865005        -0.789411
