19
Iteration:  1404
 O        -0.246055         0.363743        -0.276877
 C        -0.646734         1.385389         0.669550
 C         0.381857         2.542052         0.756421
 C        -0.327672         3.514806         1.918894
 C        -1.238755         2.474987         2.782224
 C        -0.975716         1.158282         2.258070
 C        -1.839669         3.461656         1.767467
 O        -2.456430         3.071919         0.526725
 C        -1.954256         1.876616        -0.001358
 H         0.454505        -0.238419         0.010794
 H         1.298264         2.061850         1.094720
 H         0.396856         2.927497        -0.263530
 H         0.192204         4.441960         2.265559
 H        -1.434516         2.495687         3.784721
 H        -0.231279         0.537585         2.811014
 H        -1.824067         0.387217         2.178655
 H        -2.341790         4.317133         2.180388
 H        -2.761157         1.145279        -0.097886
 H        -1.531892         2.056038        -0.991229
