19
Iteration:  1081charge 0 multiplicity 1
 O        -0.189944         0.355789        -0.225981
 C        -0.669652         1.355782         0.663633
 C         0.363515         2.581113         0.868995
 C        -0.318836         3.439043         1.885482
 C        -1.128300         2.490816         2.672403
 C        -0.987658         1.145530         2.197429
 C        -1.877136         3.455904         1.745228
 O        -2.516646         3.075515         0.574037
 C        -1.986405         1.888601        -0.036815
 H         0.542156        -0.198349         0.165274
 H         1.272856         2.147083         1.266451
 H         0.480637         3.071039        -0.117651
 H         0.174742         4.371746         2.153986
 H        -1.294668         2.678185         3.795321
 H        -0.142440         0.748023         2.734131
 H        -1.886682         0.480666         2.251153
 H        -2.425786         4.211153         2.369446
 H        -2.830566         1.180998        -0.301652
 H        -1.565927         2.189672        -1.056198
