19
Iteration:  2395charge 0 multiplicity 1
 O        -0.148119         0.293429        -0.114182
 C        -0.738506         1.405407         0.637244
 C         0.275519         2.598263         0.643625
 C        -0.227127         3.422003         1.744377
 C        -1.035218         2.583856         2.815071
 C        -1.110790         1.221228         2.159017
 C        -1.813617         3.472360         1.852356
 O        -2.604079         2.876832         0.748303
 C        -1.920038         1.967317        -0.188239
 H         0.150857        -0.421440         0.505496
 H         1.334225         2.310361         0.822938
 H         0.369761         3.032802        -0.314825
 H         0.260400         4.322812         1.962341
 H        -0.796698         2.724456         3.892155
 H        -0.313483         0.598097         2.602126
 H        -1.983690         0.665567         2.466470
 H        -2.232132         4.446588         2.184447
 H        -2.678400         1.258975        -0.266677
 H        -1.476001         2.348188        -1.168096
