19
Iteration:  4217
 O        -0.066278         0.308722        -0.068682
 C        -0.687826         1.482116         0.584590
 C         0.251261         2.713040         0.434227
 C        -0.306220         3.500673         1.574269
 C        -0.999443         2.596955         2.611272
 C        -0.661837         1.222438         2.169868
 C        -1.814562         3.469517         1.763914
 O        -2.709522         2.863753         0.865731
 C        -2.236386         1.706367         0.327542
 H        -0.782433        -0.333186        -0.276743
 H         1.300271         2.378745         0.616512
 H         0.272562         3.228843        -0.603180
 H         0.047382         4.488002         1.960714
 H        -0.758698         2.853936         3.643057
 H         0.410710         1.012214         2.416829
 H        -1.270304         0.475916         2.565227
 H        -2.316839         4.456845         2.077340
 H        -2.711357         0.863441         0.833802
 H        -2.549373         1.580188        -0.776772
