19
Iteration:  3924charge 0 multiplicity 1
 O        -0.238592         0.278544        -0.063889
 C        -0.633389         1.426024         0.594268
 C         0.182744         2.772101         0.430060
 C        -0.323514         3.634733         1.560194
 C        -0.859109         2.669551         2.663141
 C        -0.685722         1.291236         2.146216
 C        -1.810656         3.424032         1.873136
 O        -2.722066         2.722996         0.918733
 C        -2.108906         1.707704         0.116081
 H        -0.332469        -0.591771         0.384240
 H         1.323559         2.657325         0.465361
 H        -0.162456         3.167651        -0.532392
 H         0.139378         4.604641         1.869937
 H        -0.650812         2.771110         3.710313
 H         0.271013         0.861211         2.370497
 H        -1.497467         0.610574         2.633094
 H        -2.391940         4.187546         2.341544
 H        -2.549797         0.759032         0.312283
 H        -2.152120         1.899306        -1.031393
