19
Iteration:  2167charge 0 multiplicity 1
 O        -0.020896         0.390969        -0.055776
 C        -0.765689         1.343521         0.688770
 C         0.271069         2.496839         0.722842
 C        -0.259620         3.441206         1.759259
 C        -1.070727         2.506263         2.666531
 C        -1.251114         1.085180         2.121036
 C        -1.761373         3.593593         1.794038
 O        -2.533365         2.961415         0.727259
 C        -1.857931         1.996327        -0.113501
 H        -0.464158        -0.469420         0.030406
 H         1.264455         2.163259         1.021665
 H         0.283164         3.045874        -0.262246
 H         0.425460         4.153791         2.278747
 H        -1.091888         2.626954         3.763192
 H        -0.657779         0.384503         2.757651
 H        -2.254189         0.713998         2.103153
 H        -2.313214         4.539184         2.044814
 H        -2.702785         1.324632        -0.334343
 H        -1.499398         2.385373        -1.018050
