19
Iteration:  4044
 O        -0.048088         0.269017         0.040447
 C        -0.750316         1.414978         0.616031
 C         0.156687         2.697574         0.379424
 C        -0.425476         3.657955         1.468090
 C        -0.852527         2.622756         2.634860
 C        -0.613855         1.140440         2.152362
 C        -1.845776         3.408139         1.907662
 O        -2.767573         2.908420         0.901686
 C        -2.126393         1.760280         0.168550
 H        -0.519985        -0.375816        -0.498389
 H         1.060025         2.263186         0.724425
 H         0.258792         3.001575        -0.666896
 H         0.158651         4.527541         1.914943
 H        -0.635890         3.008058         3.609173
 H         0.546658         0.849914         2.174472
 H        -1.387368         0.424520         2.682720
 H        -2.264310         4.380865         2.384448
 H        -2.734272         0.784007         0.396515
 H        -2.176153         1.931059        -0.914799
