19
Iteration:  4705charge 0 multiplicity 1
 O        -0.422411         0.245682        -0.094720
 C        -0.650834         1.432683         0.600339
 C         0.242337         2.773145         0.524967
 C        -0.404949         3.647024         1.672219
 C        -0.917349         2.582212         2.708120
 C        -0.773863         1.248172         2.189371
 C        -1.821691         3.324998         1.872175
 O        -2.480706         2.895575         0.711448
 C        -2.009586         1.697397         0.118398
 H         0.479293        -0.123163         0.027004
 H         1.231027         2.502257         0.745434
 H         0.291072         3.292335        -0.421259
 H         0.167997         4.542834         1.978952
 H        -1.036752         2.761745         3.836279
 H         0.113860         0.739886         2.581619
 H        -1.760000         0.633356         2.390590
 H        -2.442290         4.188678         2.290130
 H        -2.654172         0.867929         0.264439
 H        -2.146088         1.921529        -0.994508
