19
Iteration:  2296charge 0 multiplicity 1
 O        -0.114391         0.254207        -0.052175
 C        -0.590228         1.437112         0.606053
 C         0.223448         2.685181         0.593507
 C        -0.301189         3.387854         1.831894
 C        -1.154633         2.443724         2.737802
 C        -0.964392         1.124548         2.139455
 C        -1.804382         3.422788         1.808884
 O        -2.444852         3.170536         0.562745
 C        -2.065188         1.884885         0.054797
 H        -0.620786        -0.501031         0.334581
 H         1.272248         2.423112         0.939085
 H         0.321860         3.223151        -0.337341
 H         0.274860         4.187301         2.254145
 H        -1.430858         2.544220         3.745404
 H        -0.165417         0.688020         2.787706
 H        -1.975791         0.697967         2.089823
 H        -2.226169         4.278993         2.277715
 H        -2.715551         1.044731         0.357162
 H        -2.128238         2.048723        -1.098877
