19
Iteration:  2870charge 0 multiplicity 1
 O        -0.146683         0.212013         0.140077
 C        -0.717091         1.430283         0.604331
 C         0.253174         2.662452         0.568006
 C        -0.306126         3.484881         1.683589
 C        -0.982114         2.525547         2.637856
 C        -0.805375         1.163161         2.059017
 C        -1.886097         3.446294         1.857211
 O        -2.615408         3.012568         0.778783
 C        -2.066479         1.893755        -0.024939
 H        -0.137831         0.090888        -0.816414
 H         1.238402         2.349211         0.845935
 H         0.115658         3.229746        -0.401212
 H         0.327233         4.182215         2.184758
 H        -0.835292         2.562787         3.700954
 H         0.181471         0.763071         2.374320
 H        -1.590569         0.363920         2.247263
 H        -2.299176         4.217317         2.361169
 H        -2.772830         1.031686        -0.055477
 H        -2.146233         2.396677        -0.957476
