19
Iteration:  4075
 O        -0.126183         0.246846        -0.031996
 C        -0.677753         1.450234         0.608658
 C         0.123762         2.786319         0.382476
 C        -0.323054         3.538062         1.581323
 C        -0.881318         2.710127         2.740646
 C        -0.782078         1.247485         2.149534
 C        -1.766852         3.460600         1.794291
 O        -2.677646         2.766502         0.927246
 C        -2.091862         1.641052         0.205426
 H        -0.569077         0.047941        -0.891430
 H         1.177995         2.576869         0.212263
 H        -0.200020         3.349233        -0.562453
 H         0.107605         4.564624         1.806141
 H        -0.768939         3.026574         3.762762
 H         0.238576         0.720086         2.376286
 H        -1.604905         0.646684         2.500090
 H        -2.169214         4.441108         2.034130
 H        -2.588187         0.667668         0.542470
 H        -2.202593         1.788759        -0.842595
