19
Iteration:  1776charge 0 multiplicity 1
 O        -0.314757         0.279690        -0.063052
 C        -0.718405         1.423677         0.613072
 C         0.358476         2.506040         0.891423
 C        -0.337972         3.428509         1.828368
 C        -1.280899         2.405003         2.758881
 C        -0.883590         1.107497         2.165891
 C        -1.803337         3.417105         1.761958
 O        -2.437595         3.198826         0.516176
 C        -1.965312         2.045297        -0.152697
 H         0.606448        -0.036304         0.182515
 H         1.304678         2.143126         1.161129
 H         0.566832         2.850434        -0.092771
 H         0.082022         4.380085         2.304903
 H        -1.326344         2.543896         3.852546
 H         0.177512         0.903026         2.389304
 H        -1.500897         0.078913         2.359019
 H        -2.347801         4.085621         2.332976
 H        -2.578313         1.102411        -0.159954
 H        -1.616868         2.361545        -1.194524
