19
Iteration:  1891charge 0 multiplicity 1
 O        -0.446617         0.222002        -0.131478
 C        -0.592091         1.488081         0.663483
 C         0.403240         2.582693         0.816090
 C        -0.284336         3.451855         1.985773
 C        -1.223809         2.524455         2.689882
 C        -1.035821         1.135675         2.120562
 C        -1.838010         3.472799         1.783133
 O        -2.505838         3.009681         0.592832
 C        -1.752371         1.925663        -0.144110
 H         0.516327        -0.027034         0.010701
 H         1.398094         2.191649         1.059881
 H         0.539491         3.262660        -0.056220
 H         0.215527         4.353918         2.271947
 H        -1.385991         2.490879         3.773192
 H        -0.054242         0.752989         2.490789
 H        -1.770613         0.383361         2.249194
 H        -2.621221         4.342445         2.077123
 H        -2.535612         1.148073        -0.425174
 H        -1.426427         2.475570        -1.017912
