19
Iteration:  4993charge 0 multiplicity 1
 O        -0.119557         0.230575        -0.092997
 C        -0.692895         1.361916         0.686138
 C         0.058626         2.645439         0.510718
 C        -0.356698         3.544634         1.632917
 C        -0.903868         2.643008         2.712513
 C        -0.734548         1.138751         2.111152
 C        -1.817049         3.452177         1.868397
 O        -2.612045         3.068691         0.676715
 C        -2.139324         1.697995         0.231145
 H         0.827233         0.487360        -0.068322
 H         1.134015         2.430102         0.702038
 H        -0.100259         3.037651        -0.495421
 H         0.287138         4.412336         1.785803
 H        -0.872896         2.981731         3.821619
 H         0.086459         0.638640         2.415976
 H        -1.619788         0.440033         2.322424
 H        -2.262944         4.344820         2.357753
 H        -2.814781         0.957417         0.471362
 H        -2.165843         1.731117        -0.893616
