19
Iteration:  3577charge 0 multiplicity 1
 O        -0.126247         0.312373         0.030702
 C        -0.708725         1.480121         0.590700
 C         0.176414         2.784830         0.419903
 C        -0.303362         3.503278         1.672744
 C        -1.009806         2.596114         2.662627
 C        -0.738031         1.242492         2.087738
 C        -1.805175         3.495976         1.831745
 O        -2.572702         2.863869         0.790319
 C        -2.166799         1.594132         0.229003
 H        -0.417327         0.213833        -0.879898
 H         1.209537         2.397504         0.413765
 H        -0.150609         3.327831        -0.499389
 H         0.249809         4.394976         2.037032
 H        -0.760821         2.822136         3.763018
 H         0.279722         0.777423         2.308917
 H        -1.411648         0.395336         2.307386
 H        -2.313702         4.278294         2.420217
 H        -2.515504         0.661916         0.728382
 H        -2.550185         1.606376        -0.866073
