19
Iteration:  4998
 O        -0.104200         0.222451        -0.074700
 C        -0.723593         1.335817         0.655142
 C         0.075824         2.610258         0.520362
 C        -0.367658         3.561074         1.597189
 C        -0.940876         2.602325         2.686453
 C        -0.681757         1.159922         2.123119
 C        -1.843982         3.488680         1.917573
 O        -2.633385         3.082107         0.693714
 C        -2.098603         1.760670         0.185063
 H         0.826315         0.483986        -0.066962
 H         1.128570         2.410280         0.753951
 H        -0.150690         2.878031        -0.531670
 H         0.364675         4.340216         1.833968
 H        -0.834697         2.841585         3.681099
 H         0.268152         0.530505         2.546330
 H        -1.513810         0.497274         2.455751
 H        -2.382115         4.319172         2.327727
 H        -2.925341         0.983449         0.558352
 H        -2.248685         1.677696        -0.887985
