19
Iteration:  4149charge 0 multiplicity 1
 O        -0.230963         0.153825         0.078673
 C        -0.661267         1.456427         0.606490
 C         0.188834         2.786644         0.402595
 C        -0.282859         3.641911         1.608334
 C        -0.904897         2.613472         2.603927
 C        -0.656288         1.245536         2.054435
 C        -1.854149         3.423902         1.793611
 O        -2.759508         2.828840         0.900676
 C        -2.104533         1.716370         0.246486
 H         0.298593         0.326400        -0.703589
 H         1.241912         2.398114         0.410496
 H        -0.004898         3.257788        -0.591812
 H         0.181910         4.646507         1.950421
 H        -0.770811         2.619007         3.686280
 H         0.341999         1.055829         2.371401
 H        -1.219182         0.422515         2.406907
 H        -2.249371         4.348579         2.142092
 H        -2.582601         0.820002         0.554849
 H        -2.331200         1.821477        -0.878902
