19
Iteration:  4307charge 0 multiplicity 1
 O        -0.040207         0.253832        -0.004964
 C        -0.674943         1.406378         0.619402
 C         0.311067         2.713402         0.418821
 C        -0.311870         3.591119         1.550841
 C        -1.018929         2.615385         2.647400
 C        -0.756948         1.178366         2.090340
 C        -1.800305         3.553157         1.809549
 O        -2.749349         2.891887         0.971225
 C        -2.199655         1.631237         0.225151
 H        -0.386213         0.298693        -0.923538
 H         1.417492         2.539751         0.505350
 H         0.180815         2.983776        -0.741346
 H         0.178182         4.381030         1.953552
 H        -1.008246         2.813226         3.735314
 H         0.210678         0.767015         2.495109
 H        -1.566705         0.539304         2.267799
 H        -1.997570         4.517945         2.059572
 H        -2.824252         0.777474         0.540424
 H        -2.384766         1.836009        -0.880022
