19
Iteration:  3871charge 0 multiplicity 1
 O        -0.045842         0.423091        -0.161827
 C        -0.679565         1.367611         0.709184
 C         0.104737         2.633178         0.380993
 C        -0.338533         3.480753         1.536693
 C        -0.915728         2.688589         2.669750
 C        -0.532375         1.210134         2.284368
 C        -1.851334         3.497739         1.760457
 O        -2.749388         2.834431         0.890551
 C        -2.248496         1.695606         0.258627
 H        -0.611747        -0.340811        -0.422334
 H         1.207998         2.261208         0.536260
 H        -0.056579         3.051608        -0.610564
 H         0.117656         4.465798         1.852220
 H        -0.741908         3.052927         3.661996
 H         0.473433         0.965388         2.529387
 H        -1.045175         0.367763         2.780647
 H        -2.361491         4.374687         2.203800
 H        -2.949790         0.885261         0.219750
 H        -2.007194         1.971229        -0.811251
