19
Iteration:  4457
 O        -0.279948         0.207540        -0.113896
 C        -0.648178         1.435395         0.660773
 C         0.242010         2.746434         0.514768
 C        -0.322242         3.553870         1.643360
 C        -1.024037         2.605621         2.678596
 C        -0.721681         1.194522         2.160921
 C        -1.814532         3.503547         1.811756
 O        -2.635668         2.924952         0.754427
 C        -2.097035         1.731930         0.147059
 H         0.533588        -0.260132         0.191278
 H         1.254128         2.518390         0.773260
 H         0.140153         3.217631        -0.440943
 H         0.159330         4.393264         2.050790
 H        -0.713320         2.656665         3.749309
 H         0.281298         0.761869         2.495799
 H        -1.454671         0.421904         2.429655
 H        -2.307644         4.288634         2.355004
 H        -2.733364         0.820912         0.441767
 H        -2.124217         1.864644        -0.910548
