19
Iteration:  1056charge 0 multiplicity 1
 O        -0.306720         0.343470        -0.094690
 C        -0.610552         1.458450         0.618715
 C         0.446998         2.681049         0.820494
 C        -0.283776         3.414252         1.874487
 C        -1.256140         2.478382         2.732298
 C        -1.014939         1.064711         2.060131
 C        -1.851061         3.529363         1.760869
 O        -2.540663         3.017246         0.625302
 C        -1.890013         1.844291        -0.061341
 H         0.567535        -0.043371         0.115734
 H         1.394440         2.211277         1.146232
 H         0.485362         3.126671        -0.166502
 H         0.224825         4.376751         2.362747
 H        -1.426482         2.669258         3.763490
 H        -0.073366         0.579581         2.476176
 H        -1.758396         0.345602         1.882354
 H        -2.182686         4.421796         2.126801
 H        -2.585715         1.021911         0.050955
 H        -1.814060         1.936231        -1.123053
