19
Iteration:  4057charge 0 multiplicity 1
 O        -0.049905         0.246549         0.080398
 C        -0.680055         1.431803         0.572283
 C         0.164556         2.713148         0.411115
 C        -0.325279         3.635021         1.557218
 C        -0.817842         2.612750         2.589333
 C        -0.649198         1.268237         2.080171
 C        -1.857131         3.446654         1.844261
 O        -2.731839         2.842020         0.920063
 C        -2.238442         1.703347         0.192649
 H        -0.622946        -0.248198        -0.564886
 H         1.222269         2.551529         0.617893
 H         0.092960         3.115020        -0.572604
 H         0.203699         4.539578         1.807058
 H        -0.704714         2.715505         3.677514
 H         0.207051         0.776873         2.539377
 H        -1.501812         0.488216         2.302130
 H        -2.508607         4.183103         2.496584
 H        -2.907051         0.869211         0.458423
 H        -2.359699         1.917797        -0.928061
