19
Iteration:   521charge 0 multiplicity 1
 O        -0.272328         0.315190        -0.138317
 C        -0.666093         1.433728         0.646280
 C         0.329028         2.591087         0.818432
 C        -0.290792         3.461741         1.864536
 C        -1.154224         2.457131         2.773700
 C        -1.117132         1.113062         2.093319
 C        -1.828226         3.532181         1.798473
 O        -2.478223         2.978533         0.600754
 C        -1.844998         1.961746        -0.097224
 H         0.565717         0.003523         0.178142
 H         1.270652         2.277523         1.169838
 H         0.603816         2.909579        -0.203518
 H         0.302074         4.144118         2.319836
 H        -1.179409         2.689665         3.826823
 H        -0.355356         0.489622         2.546942
 H        -2.070712         0.443935         2.089480
 H        -2.357043         4.407780         2.071243
 H        -2.641350         1.176302        -0.189338
 H        -1.497992         2.211680        -1.187017
