19
Iteration:  1093charge 0 multiplicity 1
 O        -0.145758         0.405851        -0.183844
 C        -0.711609         1.341533         0.698547
 C         0.289023         2.514355         0.764971
 C        -0.357736         3.474362         1.766016
 C        -1.207096         2.566367         2.724451
 C        -0.990864         1.023364         2.133604
 C        -1.911933         3.501404         1.887629
 O        -2.467678         3.110511         0.615129
 C        -1.869789         1.868770        -0.099534
 H         0.451960        -0.139185         0.311160
 H         1.235782         2.169178         1.167098
 H         0.582906         2.878969        -0.236396
 H         0.199956         4.096299         2.368610
 H        -1.079571         2.663050         3.852553
 H        -0.118757         0.570644         2.532057
 H        -1.839566         0.334230         2.451683
 H        -2.453099         4.479618         2.154694
 H        -2.699654         1.083406        -0.053740
 H        -1.580978         2.187854        -1.170650
