19
Iteration:  3094charge 0 multiplicity 1
 O        -0.260294         0.251989        -0.073761
 C        -0.698697         1.475180         0.616108
 C         0.239526         2.759351         0.608570
 C        -0.314120         3.542510         1.774722
 C        -0.958185         2.498949         2.651525
 C        -0.872885         1.128054         2.099713
 C        -1.782115         3.474456         1.793939
 O        -2.599681         2.951890         0.758989
 C        -2.021992         1.768102         0.040719
 H         0.653508         0.053141         0.282227
 H         1.194719         2.409947         0.861479
 H         0.314605         3.098120        -0.468074
 H         0.064274         4.451348         2.180105
 H        -1.039413         2.761923         3.713975
 H         0.123889         0.675333         2.411074
 H        -1.711987         0.431709         2.220805
 H        -2.331992         4.249293         2.219025
 H        -2.647549         0.933466         0.373799
 H        -2.196611         1.972488        -0.987985
