19
Iteration:  4029
 O        -0.101106         0.310107        -0.064580
 C        -0.651807         1.381607         0.690171
 C         0.112009         2.620534         0.467808
 C        -0.435328         3.541187         1.497175
 C        -0.839708         2.639207         2.681149
 C        -0.591835         1.243708         2.202169
 C        -1.859348         3.461815         1.808405
 O        -2.718935         2.861620         0.891369
 C        -2.145181         1.772943         0.171369
 H        -0.818137        -0.202732        -0.521062
 H         1.233374         2.614550         0.552480
 H        -0.028192         2.984339        -0.622411
 H         0.030894         4.528791         1.499413
 H        -0.641672         2.824593         3.750392
 H         0.534861         0.943756         2.519588
 H        -1.234535         0.469953         2.529059
 H        -2.383903         4.204763         2.284734
 H        -2.922230         0.928471         0.219681
 H        -1.948378         2.079069        -0.853502
