19
Iteration:  4452
 O        -0.252897         0.243360        -0.171585
 C        -0.659608         1.418172         0.712944
 C         0.192668         2.717463         0.502732
 C        -0.305321         3.546166         1.635867
 C        -1.042828         2.588852         2.697268
 C        -0.725561         1.224327         2.187909
 C        -1.796462         3.477183         1.781802
 O        -2.586654         2.896691         0.778130
 C        -2.100424         1.761329         0.162559
 H         0.353113        -0.376315         0.269007
 H         1.349312         2.520907         0.622665
 H         0.045077         3.114616        -0.548357
 H         0.056370         4.528850         2.093075
 H        -0.786693         2.697931         3.724801
 H         0.183052         0.903648         2.651274
 H        -1.555333         0.511966         2.507278
 H        -2.356189         4.325255         2.239079
 H        -2.731711         0.888285         0.325075
 H        -2.111393         1.899419        -0.969892
