19
Iteration:   969
 O        -0.262459         0.236354        -0.202292
 C        -0.595958         1.417837         0.660898
 C         0.434015         2.670568         0.845269
 C        -0.372808         3.482899         1.907806
 C        -1.236895         2.422622         2.686356
 C        -1.016133         1.168763         2.054622
 C        -1.802617         3.531198         1.774584
 O        -2.527688         3.015070         0.609602
 C        -1.930824         1.874436        -0.006764
 H         0.572409        -0.051624         0.163191
 H         1.364597         2.337744         1.313934
 H         0.541109         3.246260        -0.058295
 H         0.138063         4.307543         2.588972
 H        -1.006766         2.503306         3.703338
 H        -0.260334         0.572519         2.599715
 H        -1.949927         0.667204         2.062377
 H        -2.146862         4.480263         1.878753
 H        -2.805062         1.127812         0.104676
 H        -1.788642         2.023812        -1.160102
