19
Iteration:  4761charge 0 multiplicity 1
 O        -0.019427         0.385792        -0.106956
 C        -0.744719         1.362572         0.627164
 C         0.173712         2.644374         0.528815
 C        -0.319937         3.567553         1.623765
 C        -0.974756         2.573454         2.739496
 C        -0.774111         1.133824         2.203024
 C        -1.808830         3.473207         1.789842
 O        -2.528941         2.972382         0.703876
 C        -2.269490         1.713460         0.215467
 H        -0.451240        -0.476658        -0.114769
 H         1.189268         2.384163         0.619807
 H        -0.012560         3.136414        -0.394512
 H         0.303394         4.459807         1.885023
 H        -0.837742         2.993065         3.709143
 H         0.212028         0.772206         2.450032
 H        -1.549007         0.284438         2.513159
 H        -2.330284         4.358638         2.155715
 H        -2.918152         0.973104         0.605336
 H        -2.438538         1.825369        -0.916153
