19
Iteration:   314
 O        -0.137428         0.303076        -0.002404
 C        -0.745709         1.434643         0.576018
 C         0.377099         2.504225         0.795494
 C        -0.280046         3.374681         1.727885
 C        -1.132308         2.487160         2.660516
 C        -1.142890         1.158273         2.040452
 C        -1.839484         3.450793         1.885949
 O        -2.567339         3.022538         0.716340
 C        -1.876741         2.057368        -0.134779
 H         0.560863         0.101217         0.695245
 H         1.326546         2.038017         1.165546
 H         0.788502         3.001196        -0.244319
 H         0.104754         4.049634         2.333336
 H        -0.758872         2.687309         3.754225
 H        -0.428247         0.471784         2.407685
 H        -2.195389         0.659579         1.834986
 H        -2.441219         4.399316         2.310743
 H        -2.589533         1.288272        -0.474259
 H        -1.647743         2.546539        -1.030151
