19
Iteration:  4967charge 0 multiplicity 1
 O        -0.319317         0.361596        -0.140177
 C        -0.696626         1.417210         0.669461
 C         0.192523         2.786822         0.476281
 C        -0.218745         3.551803         1.698724
 C        -1.038271         2.652271         2.678401
 C        -0.802542         1.185925         2.234129
 C        -1.747046         3.434325         1.801617
 O        -2.545719         2.828345         0.728071
 C        -2.105217         1.612939         0.143312
 H         0.628120         0.351663         0.140166
 H         1.281135         2.615344         0.421987
 H        -0.154635         3.151528        -0.557966
 H         0.504645         4.215856         2.183809
 H        -0.981900         2.956406         3.684518
 H         0.178814         0.708318         2.722397
 H        -1.654739         0.698638         2.460683
 H        -2.269859         4.353328         2.132507
 H        -2.585404         0.699380         0.691631
 H        -2.353550         1.570774        -0.918056
