19
Iteration:  4763charge 0 multiplicity 1
 O        -0.026276         0.377716        -0.099931
 C        -0.741764         1.366232         0.617278
 C         0.157282         2.653601         0.528207
 C        -0.321791         3.584566         1.624683
 C        -0.945846         2.571587         2.744709
 C        -0.783398         1.141157         2.198390
 C        -1.821353         3.471638         1.796261
 O        -2.526535         2.978119         0.699465
 C        -2.251641         1.696406         0.215415
 H        -0.531535        -0.458828        -0.163757
 H         1.208333         2.381793         0.620381
 H         0.003736         3.157029        -0.397183
 H         0.294260         4.442889         1.935739
 H        -0.859422         2.930470         3.709949
 H         0.175898         0.708992         2.475612
 H        -1.558050         0.297716         2.483748
 H        -2.309167         4.349821         2.099379
 H        -2.928726         0.934338         0.641234
 H        -2.372284         1.803929        -0.902446
