19
Iteration:   540
 O        -0.191940         0.310432        -0.126767
 C        -0.713294         1.384743         0.641944
 C         0.297305         2.563380         0.756178
 C        -0.264868         3.490095         1.845635
 C        -1.166036         2.516700         2.726541
 C        -1.181529         1.117876         2.116975
 C        -1.759881         3.434400         1.797374
 O        -2.451216         2.982359         0.710591
 C        -1.846951         1.947122        -0.178540
 H         0.696348         0.076319         0.196927
 H         1.350954         2.133731         1.059709
 H         0.427172         3.255234        -0.048988
 H         0.114231         4.410121         2.172654
 H        -1.446153         2.686349         3.804429
 H        -0.690305         0.377692         2.769141
 H        -2.161033         0.772692         2.212904
 H        -2.308779         4.311084         2.284643
 H        -2.713008         1.266966        -0.448983
 H        -1.585226         2.626560        -1.025986
