19
Iteration:  4185
 O        -0.099001         0.295229        -0.115538
 C        -0.717784         1.361771         0.745731
 C         0.027413         2.677674         0.406039
 C        -0.318953         3.643733         1.550364
 C        -0.816113         2.677314         2.636320
 C        -0.756749         1.215003         2.288983
 C        -1.802935         3.411605         1.925412
 O        -2.609995         2.829212         0.772522
 C        -2.119977         1.690492         0.197557
 H        -0.498645         0.312455        -0.986163
 H         1.083775         2.303797         0.341722
 H        -0.281548         3.081964        -0.691516
 H         0.054165         4.692380         1.687318
 H        -0.566488         2.858925         3.684751
 H         0.293438         0.898537         2.625808
 H        -1.570662         0.836937         2.806487
 H        -2.532184         4.245792         2.334735
 H        -2.848385         0.812017         0.400717
 H        -1.955126         1.885658        -0.916576
