19
Iteration:  4186charge 0 multiplicity 1
 O        -0.091166         0.302556        -0.116198
 C        -0.723609         1.364587         0.742172
 C         0.030118         2.666645         0.416240
 C        -0.310248         3.650383         1.553754
 C        -0.817048         2.674150         2.633216
 C        -0.747748         1.210596         2.281205
 C        -1.801803         3.429698         1.927360
 O        -2.620234         2.830464         0.767198
 C        -2.125958         1.686744         0.202292
 H        -0.516631         0.283105        -0.983605
 H         1.076643         2.298513         0.356923
 H        -0.257446         3.062071        -0.677957
 H         0.010992         4.665942         1.642799
 H        -0.570301         2.834801         3.682671
 H         0.310456         0.881192         2.614967
 H        -1.609866         0.835776         2.799521
 H        -2.516235         4.219586         2.340234
 H        -2.871589         0.791595         0.408343
 H        -1.944411         1.857607        -0.871111
