19
Iteration:  2285charge 0 multiplicity 1
 O        -0.063733         0.244411        -0.087025
 C        -0.688748         1.417964         0.572948
 C         0.342524         2.688264         0.687944
 C        -0.273056         3.455444         1.813360
 C        -1.221833         2.463776         2.667607
 C        -1.014905         1.064072         2.098568
 C        -1.754429         3.496406         1.784448
 O        -2.491541         3.177030         0.595027
 C        -2.090455         1.849220         0.092695
 H         0.032958        -0.353423         0.667622
 H         1.333464         2.174740         0.772022
 H         0.298621         3.261639        -0.235014
 H         0.303236         4.182106         2.364292
 H        -1.359723         2.535968         3.712544
 H        -0.199906         0.505564         2.638018
 H        -1.914400         0.432364         2.286230
 H        -2.186978         4.334565         2.296485
 H        -2.860183         1.220369         0.563848
 H        -2.375605         1.809169        -1.022611
