19
Iteration:  3802
 O        -0.184302         0.326213        -0.125441
 C        -0.704058         1.371696         0.631232
 C         0.133642         2.723076         0.417037
 C        -0.317739         3.611056         1.601807
 C        -0.900709         2.675114         2.633406
 C        -0.528834         1.239155         2.159466
 C        -1.872059         3.436687         1.784513
 O        -2.723190         2.842144         0.866591
 C        -2.159558         1.660574         0.299293
 H         0.222419        -0.432940         0.337675
 H         1.258965         2.504216         0.495010
 H        -0.200877         3.095321        -0.586682
 H         0.066336         4.597678         1.790269
 H        -0.792386         2.801471         3.740215
 H         0.396394         0.926206         2.524414
 H        -1.244272         0.423440         2.498542
 H        -2.483071         4.183560         2.204486
 H        -2.758226         0.807535         0.432015
 H        -1.992480         1.851015        -0.819576
