19
Iteration:  3317charge 0 multiplicity 1
 O        -0.339097         0.273117        -0.112704
 C        -0.594594         1.441952         0.561767
 C         0.265188         2.698820         0.620255
 C        -0.417858         3.546390         1.672001
 C        -0.977236         2.582522         2.740837
 C        -0.724375         1.164567         2.156667
 C        -1.829334         3.443978         1.810266
 O        -2.623347         2.923571         0.734092
 C        -2.021379         1.739757         0.145291
 H         0.453556         0.231699        -0.686925
 H         1.241121         2.452178         0.867944
 H         0.191285         3.198257        -0.315272
 H        -0.034185         4.467723         1.976332
 H        -0.808367         2.892118         3.748040
 H         0.285298         0.739834         2.560583
 H        -1.466482         0.406606         2.497282
 H        -2.298883         4.313500         2.232823
 H        -2.770595         1.012017         0.429294
 H        -2.040205         1.777976        -0.941538
