19
Iteration:  4552
 O        -0.126659         0.356813        -0.094486
 C        -0.725850         1.437832         0.579243
 C         0.265728         2.609531         0.539472
 C        -0.336699         3.538145         1.652852
 C        -0.901659         2.553076         2.714166
 C        -0.825061         1.192631         2.140439
 C        -1.837248         3.501540         1.785511
 O        -2.623909         2.911501         0.756988
 C        -2.155839         1.761545         0.162277
 H        -0.086692        -0.365444         0.549276
 H         1.228938         2.129014         0.969265
 H         0.411876         3.104425        -0.418808
 H         0.149221         4.427089         1.928152
 H        -0.642450         2.940525         3.717131
 H         0.006775         0.625993         2.451609
 H        -1.746424         0.576001         2.490287
 H        -2.395989         4.291774         2.209210
 H        -2.831390         0.950360         0.392151
 H        -2.118243         1.957464        -0.986019
