19
Iteration:    11
 O        -0.285880         0.329567        -0.186717
 C        -0.684991         1.380252         0.693438
 C         0.384617         2.555281         0.807305
 C        -0.301565         3.534401         1.860499
 C        -1.128645         2.490585         2.736235
 C        -1.109593         1.061032         2.166178
 C        -1.784776         3.451168         1.751740
 O        -2.498526         3.068839         0.593373
 C        -1.882190         1.953114        -0.085114
 H         0.538768        -0.104437         0.169844
 H         1.464421         2.377565         1.142830
 H         0.414730         2.766027        -0.221100
 H         0.063118         4.477288         2.395515
 H        -1.222406         2.855252         3.732197
 H        -0.254555         0.531328         2.655905
 H        -1.928682         0.410234         2.114646
 H        -2.550962         3.984438         2.256980
 H        -2.545675         1.155257        -0.034450
 H        -1.579032         2.126737        -1.094922
