19
Iteration:   565charge 0 multiplicity 1
 O        -0.147682         0.270280        -0.055096
 C        -0.663320         1.475368         0.654359
 C         0.381692         2.531028         0.714936
 C        -0.288620         3.347409         1.831368
 C        -1.189511         2.463047         2.743801
 C        -1.101143         1.115646         2.049866
 C        -1.786768         3.577438         1.748096
 O        -2.665001         3.045856         0.684273
 C        -1.861523         1.979911        -0.105684
 H         0.710234         0.108718         0.305456
 H         1.236363         2.122026         1.207692
 H         0.773311         3.146235        -0.106991
 H         0.211975         4.025591         2.414564
 H        -0.958684         2.547983         3.791592
 H        -0.515132         0.389020         2.552144
 H        -2.120047         0.585850         2.079456
 H        -2.231041         4.399118         2.193216
 H        -2.552009         1.132184        -0.325793
 H        -1.681973         2.666053        -1.028206
