19
Iteration:  3156charge 0 multiplicity 1
 O        -0.170928         0.287249        -0.092153
 C        -0.629555         1.461047         0.678587
 C         0.144147         2.708432         0.544557
 C        -0.295592         3.514568         1.863742
 C        -1.066035         2.524685         2.684134
 C        -0.731856         1.151712         2.163889
 C        -1.822254         3.430305         1.810361
 O        -2.471496         3.028192         0.573466
 C        -2.151409         1.712864         0.154541
 H        -0.790511         0.473390        -0.844200
 H         1.215282         2.392252         0.681933
 H         0.054549         3.162892        -0.462851
 H         0.114785         4.401218         2.134178
 H        -1.147277         2.715373         3.706407
 H         0.121120         0.756128         2.652433
 H        -1.501142         0.359481         2.349810
 H        -2.369911         4.170193         2.326815
 H        -2.834567         1.002440         0.688987
 H        -2.175197         1.536418        -0.938055
