19
Iteration:  4408charge 0 multiplicity 1
 O        -0.053205         0.327945        -0.012619
 C        -0.689048         1.405041         0.598593
 C         0.233962         2.631604         0.530438
 C        -0.354355         3.587333         1.586634
 C        -0.865477         2.630713         2.628190
 C        -0.824430         1.226550         2.156824
 C        -1.815666         3.408711         1.774537
 O        -2.650351         2.890281         0.842979
 C        -2.200096         1.722944         0.205572
 H        -0.500408         0.066850        -0.833594
 H         1.312066         2.249972         0.754621
 H         0.188856         3.085257        -0.525378
 H         0.114675         4.573773         2.020209
 H        -0.819565         2.687200         3.712838
 H         0.032675         0.693803         2.530064
 H        -1.713636         0.580569         2.458960
 H        -2.206144         4.408333         2.194382
 H        -3.000667         0.960649         0.333676
 H        -2.196583         1.904290        -0.897749
