19
Iteration:   305charge 0 multiplicity 1
 O        -0.178475         0.261280        -0.025599
 C        -0.643954         1.466708         0.554855
 C         0.372565         2.516817         0.755346
 C        -0.336271         3.418747         1.783937
 C        -1.127044         2.483082         2.734241
 C        -1.150261         1.099819         2.053946
 C        -1.846199         3.470272         1.820269
 O        -2.546631         3.022573         0.734860
 C        -1.882930         2.071788        -0.178480
 H         0.608665        -0.044024         0.511143
 H         1.264267         2.010366         1.187909
 H         0.692576         3.006636        -0.172910
 H         0.184941         4.279636         2.129788
 H        -1.074479         2.842535         3.830236
 H        -0.488964         0.385715         2.530829
 H        -2.074564         0.569951         2.013993
 H        -2.229224         4.337846         2.458584
 H        -2.616516         1.246738        -0.259138
 H        -1.533803         2.554333        -1.076453
