19
Iteration:  2902charge 0 multiplicity 1
 O        -0.170878         0.335148        -0.184579
 C        -0.677214         1.350656         0.704422
 C         0.143184         2.651103         0.615598
 C        -0.281700         3.487908         1.773170
 C        -1.059701         2.551067         2.749278
 C        -0.815484         1.135558         2.265204
 C        -1.811544         3.473427         1.758709
 O        -2.464826         3.103402         0.572793
 C        -2.093477         1.689100         0.186391
 H        -0.012583         0.763549        -1.045021
 H         1.243461         2.427181         0.582199
 H        -0.114869         3.077702        -0.366657
 H         0.374710         4.292341         2.004585
 H        -1.256967         2.656535         3.802559
 H        -0.020246         0.507279         2.718631
 H        -1.669977         0.421359         2.261957
 H        -2.299453         4.255073         2.196186
 H        -2.779903         0.877833         0.672592
 H        -2.366762         1.700480        -0.876436
