19
Iteration:  2207charge 0 multiplicity 1
 O        -0.208539         0.194042         0.085936
 C        -0.640706         1.465490         0.603365
 C         0.387663         2.631178         0.762753
 C        -0.303077         3.467433         1.818293
 C        -1.183078         2.483554         2.648202
 C        -1.031090         1.101084         1.998626
 C        -1.792580         3.516041         1.769685
 O        -2.526926         3.044621         0.676625
 C        -1.959510         1.971702        -0.063760
 H        -0.669867        -0.046334        -0.748680
 H         1.316374         2.113893         1.208797
 H         0.643906         2.974189        -0.227725
 H         0.312174         4.321171         2.333920
 H        -1.215183         2.599807         3.780387
 H        -0.093422         0.673444         2.450523
 H        -1.737280         0.224617         2.161998
 H        -2.354498         4.257890         2.402239
 H        -2.686268         1.122309        -0.049942
 H        -1.711533         2.364258        -1.159076
