19
Iteration:   937
 O        -0.224450         0.344640        -0.147477
 C        -0.688658         1.426563         0.729337
 C         0.342424         2.497556         0.752093
 C        -0.336547         3.513057         1.810346
 C        -1.284072         2.400139         2.775356
 C        -0.923720         1.130211         2.188279
 C        -1.801121         3.367857         1.820264
 O        -2.503733         3.100987         0.570474
 C        -1.928874         2.001572        -0.135372
 H         0.552763        -0.080974         0.249477
 H         1.367966         2.223015         1.068616
 H         0.409230         2.968730        -0.242195
 H         0.112478         4.572990         2.104394
 H        -1.443677         2.493834         3.808971
 H        -0.026173         0.708965         2.671448
 H        -1.809367         0.472174         2.347781
 H        -2.212989         4.218193         2.165283
 H        -2.750161         1.191503        -0.288585
 H        -1.341210         2.120794        -1.146552
