19
Iteration:  4412charge 0 multiplicity 1
 O        -0.034137         0.351908        -0.056751
 C        -0.711873         1.386892         0.637385
 C         0.217579         2.632039         0.518145
 C        -0.343855         3.592007         1.628327
 C        -0.854388         2.604037         2.644880
 C        -0.827724         1.242837         2.191534
 C        -1.797826         3.445096         1.772920
 O        -2.665795         2.880109         0.814613
 C        -2.189690         1.714024         0.173124
 H        -0.682793         0.018557        -0.734026
 H         1.228991         2.285771         0.729217
 H         0.091893         2.938177        -0.478751
 H         0.123456         4.443713         1.980211
 H        -0.636321         2.773274         3.692978
 H         0.032184         0.702192         2.649425
 H        -1.698075         0.595519         2.503157
 H        -2.228242         4.337687         2.060203
 H        -3.049951         0.949070         0.345443
 H        -2.114743         1.899715        -0.868191
