19
Iteration:  2919charge 0 multiplicity 1
 O        -0.251557         0.350462        -0.214458
 C        -0.668336         1.426445         0.696961
 C         0.271712         2.695307         0.573550
 C        -0.298786         3.467707         1.832168
 C        -1.131526         2.534057         2.622915
 C        -0.860019         1.067700         2.167883
 C        -1.819846         3.514001         1.737000
 O        -2.383707         2.994711         0.522853
 C        -2.115521         1.695072         0.410010
 H         0.099433         0.708810        -1.056218
 H         1.330207         2.358752         0.761215
 H        -0.009807         3.384580        -0.244186
 H         0.083540         4.315644         2.430379
 H        -0.976837         2.745350         3.698932
 H         0.066389         0.906146         2.726386
 H        -1.598126         0.424366         2.612109
 H        -2.453704         4.402211         2.264870
 H        -2.873299         1.080684         0.836089
 H        -2.262978         1.402499        -0.665631
