19
Iteration:   698charge 0 multiplicity 1
 O        -0.242574         0.352099        -0.206406
 C        -0.683305         1.329076         0.735899
 C         0.254835         2.647150         0.728326
 C        -0.342639         3.421134         1.938366
 C        -1.218066         2.450888         2.678799
 C        -1.030818         1.007571         2.204711
 C        -1.771807         3.537776         1.746480
 O        -2.369040         3.126544         0.540520
 C        -1.907586         1.888886         0.003388
 H         0.425930        -0.261365         0.097716
 H         1.385627         2.572601         0.751266
 H        -0.032665         3.313973        -0.165843
 H         0.138680         4.163469         2.604150
 H        -1.202884         2.722439         3.754658
 H        -0.173764         0.608409         2.740115
 H        -1.976450         0.304012         2.246673
 H        -2.505834         4.397793         1.981186
 H        -2.612478         1.029671         0.057164
 H        -1.498428         2.163237        -1.057541
