19
Iteration:  2911
 O        -0.225262         0.352551        -0.210540
 C        -0.625737         1.358016         0.692674
 C         0.184424         2.683200         0.609964
 C        -0.265922         3.459032         1.803381
 C        -1.080330         2.559834         2.685306
 C        -0.862132         1.100362         2.209963
 C        -1.842364         3.466619         1.778117
 O        -2.423330         3.038185         0.547990
 C        -2.116289         1.692042         0.283543
 H        -0.009335         0.909635        -0.974593
 H         1.350016         2.578239         0.613147
 H        -0.040458         3.194667        -0.285865
 H         0.332814         4.243167         2.173861
 H        -1.203654         2.841813         3.724777
 H         0.045881         0.754785         2.753020
 H        -1.752686         0.520127         2.452070
 H        -2.301840         4.398575         2.059761
 H        -2.824078         1.093787         0.918602
 H        -2.146757         1.438405        -0.799669
