19
Iteration:  3898charge 0 multiplicity 1
 O        -0.199954         0.338763        -0.194054
 C        -0.617380         1.431499         0.596476
 C         0.228952         2.715059         0.478776
 C        -0.381616         3.622916         1.498210
 C        -0.864032         2.699750         2.678180
 C        -0.672681         1.240130         2.158782
 C        -1.819121         3.483122         1.791163
 O        -2.740101         2.755408         0.901425
 C        -2.114268         1.666135         0.335317
 H        -0.639998        -0.537463        -0.071293
 H         1.077847         2.422617         0.977608
 H         0.411245         3.133359        -0.530193
 H        -0.026577         4.608780         1.649924
 H        -0.769244         2.890204         3.780468
 H         0.239580         0.592463         2.452960
 H        -1.497012         0.607451         2.527300
 H        -2.400050         4.222331         2.353126
 H        -2.563963         0.637346         0.625771
 H        -2.142976         1.674798        -0.734074
