19
Iteration:  1264
 O        -0.129610         0.320056        -0.091022
 C        -0.703840         1.345410         0.701199
 C         0.272747         2.545903         0.706677
 C        -0.334919         3.512954         1.767947
 C        -1.170717         2.430150         2.643362
 C        -1.034648         1.093171         2.148882
 C        -1.800943         3.459362         1.778696
 O        -2.533485         3.008271         0.728333
 C        -1.901556         2.051545        -0.120209
 H         0.648396         0.099667         0.492175
 H         1.163060         2.048610         1.179529
 H         0.517819         3.042145        -0.242878
 H         0.322586         4.227500         2.386187
 H        -1.417702         2.767865         3.635825
 H        -0.313565         0.432910         2.710954
 H        -1.932576         0.600596         2.271392
 H        -2.315172         4.352384         2.189980
 H        -2.748847         1.443181        -0.475207
 H        -1.463076         2.526314        -1.072555
