19
Iteration:   349
 O        -0.243883         0.266792        -0.220609
 C        -0.666777         1.407818         0.637277
 C         0.390842         2.587166         0.796345
 C        -0.293862         3.412570         1.859187
 C        -1.242054         2.577042         2.766781
 C        -1.116889         1.129749         2.141581
 C        -1.764327         3.468376         1.752746
 O        -2.508796         2.956484         0.704854
 C        -1.855611         1.992221        -0.123932
 H         0.542159        -0.109771         0.291192
 H         1.413715         2.327723         1.171632
 H         0.360683         3.276246        -0.091311
 H         0.322864         4.197515         2.319224
 H        -1.249083         2.683352         3.903768
 H        -0.510933         0.395029         2.685947
 H        -2.138431         0.694033         2.133323
 H        -2.277389         4.452106         1.967406
 H        -2.581285         1.154597        -0.298046
 H        -1.491243         2.511953        -1.002162
