19
Iteration:   394charge 0 multiplicity 1
 O        -0.214587         0.263199        -0.114853
 C        -0.681441         1.366189         0.651406
 C         0.421495         2.615981         0.850602
 C        -0.350946         3.402072         1.831777
 C        -1.169741         2.403791         2.708476
 C        -0.998339         1.075514         2.169503
 C        -1.780839         3.451050         1.762545
 O        -2.511373         3.197469         0.546418
 C        -2.030847         1.984036        -0.091871
 H         0.726823         0.036958         0.104133
 H         1.235249         2.065761         1.407069
 H         0.660218         3.060425        -0.092403
 H        -0.084660         4.470318         2.300174
 H        -1.403037         2.519913         3.737603
 H        -0.032576         0.650590         2.592261
 H        -1.700885         0.313440         2.286630
 H        -2.218406         4.318576         2.104170
 H        -2.969395         1.298168        -0.089688
 H        -1.746164         2.372957        -1.057794
