19
Iteration:  2596
 O        -0.125312         0.340868        -0.102217
 C        -0.646502         1.457743         0.644840
 C         0.367710         2.532951         0.624319
 C        -0.274130         3.471176         1.663371
 C        -0.945215         2.661595         2.738016
 C        -0.998818         1.235747         2.108151
 C        -1.842575         3.502327         1.766631
 O        -2.714483         2.766874         0.871370
 C        -1.987013         1.879384         0.009849
 H        -0.838716        -0.292442        -0.006541
 H         1.296840         2.048649         0.909095
 H         0.574907         3.107439        -0.392071
 H         0.191555         4.402364         1.878848
 H        -0.828337         2.754976         3.779191
 H        -0.351418         0.522370         2.624527
 H        -2.046402         0.900413         2.154444
 H        -2.446973         4.374645         2.157611
 H        -2.627587         1.069537        -0.315717
 H        -1.796985         2.550909        -0.956219
