19
Iteration:  3690
 O        -0.082182         0.373576        -0.132826
 C        -0.712089         1.370816         0.670136
 C         0.172202         2.662753         0.476224
 C        -0.419213         3.597460         1.471336
 C        -0.823942         2.643929         2.695003
 C        -0.668233         1.177516         2.219597
 C        -1.847877         3.457919         1.820828
 O        -2.707417         2.780014         0.930068
 C        -2.122989         1.777506         0.122565
 H        -0.543297        -0.449677         0.068484
 H         1.155139         2.391752         0.860078
 H         0.069074         2.866383        -0.606878
 H        -0.026486         4.539851         1.849109
 H        -0.801403         2.932638         3.707435
 H         0.305448         0.804507         2.438381
 H        -1.428061         0.556278         2.677259
 H        -2.429363         4.356011         2.252876
 H        -2.809955         0.990312         0.002548
 H        -2.021815         2.354898        -0.914810
