19
Iteration:  3463charge 0 multiplicity 1
 O        -0.109391         0.318078        -0.141958
 C        -0.683297         1.405958         0.657272
 C         0.171416         2.631483         0.463973
 C        -0.365056         3.562286         1.517220
 C        -0.848575         2.659885         2.708229
 C        -0.865464         1.226942         2.163329
 C        -1.815498         3.442855         1.918126
 O        -2.712598         2.765901         0.933508
 C        -2.045565         1.827931         0.048594
 H         0.453180        -0.284318         0.367920
 H         1.242862         2.529691         0.694283
 H         0.083959         3.104689        -0.499089
 H         0.084848         4.555162         1.697927
 H        -0.702847         2.914300         3.732809
 H         0.026661         0.630858         2.674710
 H        -1.887498         0.686009         2.400989
 H        -2.317541         4.305602         2.237456
 H        -2.670724         0.858596         0.108135
 H        -1.973224         2.319839        -1.002859
