19
Iteration:  3142
 O        -0.051194         0.396380        -0.109291
 C        -0.748548         1.312413         0.670634
 C         0.128014         2.713864         0.587602
 C        -0.275673         3.513587         1.729591
 C        -1.073023         2.505527         2.669125
 C        -0.799800         1.066920         2.197061
 C        -1.826310         3.509293         1.771256
 O        -2.469867         3.065270         0.610492
 C        -2.135102         1.712025         0.243486
 H        -0.568259        -0.220393        -0.629410
 H         1.291316         2.503903         0.410410
 H        -0.206240         3.263757        -0.294073
 H         0.444088         4.220910         2.243722
 H        -1.150688         2.603428         3.757041
 H         0.207975         0.763866         2.531896
 H        -1.568772         0.343310         2.471838
 H        -2.492054         4.299811         2.235229
 H        -2.917723         0.999218         0.502934
 H        -2.159228         1.896697        -0.879751
