19
Iteration:  3392
 O        -0.127943         0.260117        -0.056604
 C        -0.635422         1.451124         0.665812
 C         0.163645         2.802359         0.521660
 C        -0.335213         3.583861         1.668277
 C        -0.953722         2.529615         2.607288
 C        -0.735055         1.122418         2.181561
 C        -1.873672         3.424823         1.851713
 O        -2.557563         2.969077         0.725107
 C        -2.116201         1.690562         0.146718
 H        -0.886594        -0.047269        -0.576092
 H         1.217134         2.579101         0.624296
 H        -0.142740         3.075978        -0.542962
 H         0.217567         4.370839         2.070045
 H        -0.880053         2.881423         3.639368
 H         0.232454         0.728160         2.506157
 H        -1.513802         0.482722         2.528497
 H        -2.428316         4.194113         2.416667
 H        -2.837332         0.972833         0.585748
 H        -2.404706         1.895596        -0.867761
