19
Iteration:  3187charge 0 multiplicity 1
 O        -0.343424         0.191239        -0.095930
 C        -0.625137         1.432329         0.653990
 C         0.275803         2.702740         0.637668
 C        -0.374025         3.588321         1.735164
 C        -1.048746         2.532592         2.619305
 C        -0.639771         1.095438         2.122820
 C        -1.880702         3.471170         1.811226
 O        -2.607195         3.019887         0.688684
 C        -2.077520         1.784367         0.127610
 H         0.569252         0.321303        -0.384798
 H         1.429594         2.561277         1.040055
 H         0.493153         3.128437        -0.344728
 H         0.049649         4.463354         2.215921
 H        -0.993123         2.640654         3.643897
 H         0.337956         0.880023         2.543890
 H        -1.367720         0.286935         2.367985
 H        -2.428098         4.197336         2.382849
 H        -2.738602         0.950728         0.356493
 H        -1.947001         1.964110        -1.006824
