19
Iteration:  1062
 O        -0.294251         0.317654        -0.151826
 C        -0.630060         1.478975         0.628685
 C         0.416937         2.662192         0.829917
 C        -0.277384         3.475378         1.890726
 C        -1.248374         2.502106         2.772145
 C        -0.963067         1.027910         2.114980
 C        -1.795499         3.474480         1.712701
 O        -2.578402         3.022928         0.601219
 C        -1.887213         1.897584        -0.061118
 H         0.582884        -0.007372         0.220519
 H         1.342187         2.171644         1.194587
 H         0.514970         3.141849        -0.169807
 H         0.137098         4.237913         2.382569
 H        -1.577651         2.652134         3.840337
 H        -0.127417         0.408306         2.444048
 H        -1.934650         0.396662         2.014547
 H        -2.199677         4.529248         2.066319
 H        -2.494503         0.957850         0.156694
 H        -1.902254         1.903604        -1.207379
