19
Iteration:  4649
 O        -0.079086         0.299128        -0.072806
 C        -0.647144         1.392947         0.622529
 C         0.325958         2.452366         0.513788
 C        -0.332029         3.533895         1.584245
 C        -1.031869         2.584621         2.683197
 C        -0.866887         1.199796         2.114064
 C        -1.846927         3.611904         1.793471
 O        -2.767109         2.910026         0.913147
 C        -2.091621         1.836070         0.131523
 H         0.838844         0.593667        -0.211226
 H         1.247574         2.084277         0.803556
 H         0.389962         2.800599        -0.513342
 H         0.185315         4.449019         1.609575
 H        -0.773254         2.641101         3.811352
 H         0.043646         0.737057         2.585944
 H        -1.664671         0.382963         2.239170
 H        -2.260405         4.476739         2.322312
 H        -2.659837         0.969708         0.324782
 H        -2.164743         2.234991        -0.930052
