19
Iteration:  1717charge 0 multiplicity 1
 O        -0.108756         0.329654        -0.128149
 C        -0.709406         1.388020         0.586587
 C         0.347834         2.570411         0.734824
 C        -0.275430         3.399619         1.794840
 C        -1.119202         2.551773         2.828617
 C        -1.308152         1.177749         2.092672
 C        -1.744431         3.484927         1.833971
 O        -2.502498         2.936158         0.704293
 C        -1.854778         1.962587        -0.129936
 H         0.643592         0.011967         0.429893
 H         1.281251         2.015407         1.196360
 H         0.371028         2.987307        -0.291842
 H         0.345751         4.154902         2.208665
 H        -1.411589         2.710666         3.863894
 H        -0.884088         0.182418         2.569098
 H        -2.389950         0.992312         2.028116
 H        -2.215026         4.481010         2.248955
 H        -2.533602         1.185488        -0.498005
 H        -1.692202         2.661038        -1.079430
