19
Iteration:  4472
 O        -0.308760         0.187826         0.037855
 C        -0.663212         1.441165         0.538748
 C         0.273354         2.686479         0.564598
 C        -0.365103         3.574252         1.693469
 C        -0.853500         2.541627         2.671119
 C        -0.669813         1.169557         2.035945
 C        -1.905010         3.439973         1.803946
 O        -2.681819         3.008705         0.742353
 C        -2.091768         1.738127         0.181593
 H         0.665685         0.339585        -0.035974
 H         1.303391         2.423264         0.821778
 H         0.480582         3.230924        -0.416812
 H         0.257675         4.583735         1.975715
 H        -1.162861         2.876438         3.651997
 H         0.309961         0.840311         2.451806
 H        -1.468919         0.495457         2.282383
 H        -2.520735         4.340261         2.248032
 H        -2.677123         0.934227         0.477099
 H        -2.280882         1.749631        -1.014762
