19
Iteration:  2747charge 0 multiplicity 1
 O        -0.229628         0.178170        -0.000238
 C        -0.714310         1.432759         0.631076
 C         0.111214         2.818049         0.487611
 C        -0.299138         3.518462         1.820767
 C        -0.936729         2.507260         2.770568
 C        -0.803630         1.134770         2.243275
 C        -1.852313         3.407679         1.842260
 O        -2.427212         3.011607         0.587479
 C        -2.059774         1.758371         0.026597
 H        -0.176363         0.274046        -0.963609
 H         1.258280         2.685690         0.378236
 H        -0.358004         3.434646        -0.307712
 H         0.381185         4.365977         2.086835
 H        -1.129142         2.782913         3.807862
 H         0.100605         0.570871         2.664144
 H        -1.745599         0.609025         2.458349
 H        -2.462063         4.387471         2.141644
 H        -2.913452         1.022788         0.298741
 H        -2.014184         1.952427        -1.025094
