19
Iteration:  4945
 O        -0.254107         0.286335        -0.188650
 C        -0.646857         1.361731         0.657916
 C         0.221723         2.661362         0.536449
 C        -0.356103         3.538583         1.696211
 C        -0.962465         2.625461         2.687720
 C        -0.705397         1.209520         2.199823
 C        -1.821161         3.527463         1.748645
 O        -2.655450         2.888597         0.776302
 C        -2.072331         1.757935         0.194758
 H         0.426524        -0.210614         0.293296
 H         1.260524         2.299250         0.612872
 H         0.055126         3.175851        -0.473907
 H         0.001045         4.570466         1.757491
 H        -0.892446         2.597545         3.733260
 H         0.328371         0.875027         2.612948
 H        -1.472139         0.614199         2.540514
 H        -2.411619         4.363353         2.098095
 H        -2.797623         0.904982         0.439711
 H        -2.072305         1.883760        -0.882267
