19
Iteration:  4701charge 0 multiplicity 1
 O        -0.429583         0.233687        -0.083389
 C        -0.660487         1.449180         0.611264
 C         0.208233         2.771276         0.536509
 C        -0.374440         3.659357         1.661290
 C        -0.911313         2.650975         2.766828
 C        -0.788965         1.228116         2.145715
 C        -1.832344         3.304202         1.903354
 O        -2.490900         2.873783         0.678056
 C        -2.004161         1.700485         0.106922
 H         0.506049        -0.031400        -0.031083
 H         1.299725         2.396210         0.695874
 H         0.263344         3.340788        -0.467963
 H         0.248936         4.435577         2.027016
 H        -0.978933         2.824511         3.856168
 H         0.118465         0.594500         2.475371
 H        -1.618922         0.704113         2.372000
 H        -2.391168         4.113750         2.291041
 H        -2.641469         0.770413         0.174040
 H        -1.958243         2.024584        -0.895244
