19
Iteration:  2687charge 0 multiplicity 1
 O        -0.125643         0.345060        -0.224271
 C        -0.637101         1.427590         0.627769
 C         0.342624         2.593340         0.757000
 C        -0.261188         3.506440         1.791580
 C        -1.062014         2.560370         2.605678
 C        -0.846667         1.180902         2.160675
 C        -1.831324         3.562380         1.686826
 O        -2.623687         3.014957         0.646274
 C        -2.152850         1.704419         0.260825
 H        -0.905613        -0.212950        -0.462815
 H         1.384064         2.185431         1.076214
 H         0.374393         3.033992        -0.274118
 H         0.379579         4.312223         2.175556
 H        -1.127991         2.490035         3.749737
 H         0.076406         0.834270         2.588124
 H        -1.648342         0.459985         2.396379
 H        -2.263297         4.429445         2.127393
 H        -2.783815         0.965413         0.789136
 H        -2.340983         1.385098        -0.815989
