19
Iteration:   866
 O        -0.214374         0.381439        -0.159814
 C        -0.650283         1.426085         0.690646
 C         0.318927         2.562127         0.777101
 C        -0.318001         3.423034         1.894061
 C        -1.147558         2.495932         2.748764
 C        -1.086578         1.141134         2.170804
 C        -1.831919         3.462996         1.781683
 O        -2.532111         3.010009         0.596544
 C        -1.855795         1.892041        -0.144177
 H         0.601460         0.073737         0.250836
 H         1.319361         2.127591         0.982181
 H         0.466492         3.016368        -0.226556
 H         0.305479         4.184734         2.318353
 H        -1.169849         2.694353         3.881450
 H        -0.378228         0.478821         2.686668
 H        -2.008581         0.545961         2.096788
 H        -2.355266         4.431335         2.182264
 H        -2.548624         1.043413        -0.253071
 H        -1.671076         2.361710        -1.143006
