19
Iteration:   912charge 0 multiplicity 1
 O        -0.141493         0.299384        -0.083779
 C        -0.652779         1.373144         0.590349
 C         0.254350         2.536119         0.754139
 C        -0.306103         3.425593         1.940244
 C        -1.177238         2.457483         2.664756
 C        -1.008894         1.064930         2.113737
 C        -1.845278         3.566218         1.800502
 O        -2.547175         3.081114         0.604658
 C        -1.932837         1.977194        -0.101526
 H         0.647434        -0.026368         0.445219
 H         1.311876         2.344957         0.997265
 H         0.388321         3.179601        -0.085982
 H         0.421759         4.118737         2.283271
 H        -1.194338         2.632184         3.745174
 H        -0.142092         0.552881         2.637235
 H        -1.846363         0.496001         2.318978
 H        -2.488400         4.459335         2.257053
 H        -2.726233         1.177573        -0.135781
 H        -1.565857         2.228766        -1.155236
