19
Iteration:  1616charge 0 multiplicity 1
 O        -0.093241         0.323981        -0.102168
 C        -0.713628         1.402258         0.637176
 C         0.354928         2.558019         0.771984
 C        -0.328813         3.304093         1.854124
 C        -1.233407         2.479503         2.716257
 C        -1.052609         1.118635         2.077361
 C        -1.841535         3.512451         1.760747
 O        -2.424405         3.185855         0.526388
 C        -2.034665         1.882057         0.065721
 H         0.715733         0.131305         0.412893
 H         1.375138         2.118744         0.936378
 H         0.273974         3.179310        -0.142540
 H         0.190630         4.094043         2.465242
 H        -1.291007         2.549322         3.826497
 H        -0.037176         0.641079         2.401725
 H        -1.790788         0.371079         2.047864
 H        -2.269539         4.307812         2.212658
 H        -2.925597         1.297771         0.220547
 H        -1.993735         2.132070        -0.983638
