19
Iteration:  1228
 O        -0.259495         0.240726        -0.055849
 C        -0.639506         1.488983         0.572715
 C         0.360117         2.653817         0.789807
 C        -0.322396         3.452734         1.902288
 C        -1.080276         2.539800         2.722162
 C        -1.064163         1.176539         2.002415
 C        -1.821791         3.453286         1.754618
 O        -2.553467         2.924383         0.711137
 C        -1.906822         1.920611        -0.122421
 H         0.635187        -0.085879         0.134212
 H         1.337295         2.258983         1.130484
 H         0.569815         3.279835        -0.079919
 H         0.233977         4.229249         2.555921
 H        -1.242256         2.425100         3.813774
 H        -0.511148         0.453110         2.614956
 H        -2.129547         0.907953         1.951132
 H        -2.277621         4.367296         2.107325
 H        -2.536174         0.964388        -0.232823
 H        -1.611499         2.385414        -1.145787
