19
Iteration:  4656charge 0 multiplicity 1
 O        -0.074493         0.262501        -0.064705
 C        -0.693959         1.405685         0.681265
 C         0.287381         2.518535         0.475751
 C        -0.290093         3.513166         1.561126
 C        -1.102983         2.583034         2.694509
 C        -0.826114         1.161994         2.125521
 C        -1.827029         3.539416         1.801855
 O        -2.739943         2.921973         0.912479
 C        -2.089623         1.885226         0.138597
 H         0.825366         0.569648        -0.180587
 H         1.404351         2.225001         0.731386
 H         0.355998         2.798264        -0.637914
 H         0.286507         4.473140         1.666779
 H        -0.987977         2.924226         3.666451
 H         0.163064         0.777284         2.541663
 H        -1.503476         0.384515         2.109255
 H        -2.339421         4.356549         2.234163
 H        -2.913572         1.088042         0.210160
 H        -1.994077         2.219379        -0.843960
