19
Iteration:  2156
 O        -0.140717         0.384382        -0.150145
 C        -0.667962         1.351942         0.693228
 C         0.307996         2.542338         0.744467
 C        -0.286572         3.482070         1.760477
 C        -1.229527         2.559405         2.669274
 C        -1.224797         1.103385         2.143576
 C        -1.742710         3.522970         1.750557
 O        -2.421576         2.949449         0.752424
 C        -1.881903         1.937794        -0.046112
 H        -0.334707        -0.548012         0.112952
 H         1.286415         2.183560         1.093064
 H         0.551885         2.840801        -0.348820
 H         0.271713         4.368119         2.234525
 H        -1.154709         2.651310         3.781202
 H        -0.607193         0.270473         2.560210
 H        -2.271181         0.895299         2.186498
 H        -2.225427         4.436666         2.256543
 H        -2.588900         1.189343        -0.459031
 H        -1.452194         2.434502        -0.845172
