19
Iteration:  1549
 O        -0.343198         0.320219        -0.194484
 C        -0.669863         1.418743         0.693986
 C         0.405374         2.655933         0.815762
 C        -0.375567         3.440798         1.908132
 C        -1.199697         2.476840         2.769946
 C        -0.924837         1.094440         2.155759
 C        -1.835114         3.431173         1.751311
 O        -2.428202         3.124298         0.515338
 C        -1.926190         1.844132        -0.077085
 H         0.360548        -0.301267         0.105204
 H         1.377059         2.295420         1.223840
 H         0.363214         3.316417        -0.061423
 H         0.172381         4.294438         2.296166
 H        -1.461413         2.671844         3.896390
 H         0.045236         0.647751         2.682777
 H        -1.796313         0.440157         2.310730
 H        -2.449194         4.300407         2.184111
 H        -2.667497         1.002231        -0.132517
 H        -1.527319         1.940272        -1.068890
