19
Iteration:  3271
 O        -0.111711         0.258299        -0.009718
 C        -0.687250         1.486139         0.622558
 C         0.303711         2.658626         0.517648
 C        -0.373536         3.458358         1.570180
 C        -0.961723         2.587398         2.731670
 C        -0.845806         1.178282         2.151030
 C        -1.833205         3.491227         1.805011
 O        -2.720468         2.811226         0.926656
 C        -2.009422         1.932301        -0.009674
 H        -0.734081        -0.066245        -0.715131
 H         1.173534         2.492270         1.068312
 H         0.427819         3.111493        -0.469014
 H         0.206741         4.406489         1.837949
 H        -0.700646         2.637873         3.765223
 H         0.073678         0.630178         2.559751
 H        -1.608379         0.414677         2.330442
 H        -2.344623         4.366769         2.235667
 H        -2.731851         1.066775        -0.169274
 H        -1.794708         2.372627        -0.969545
