19
Iteration:   433
 O        -0.177465         0.340674        -0.111880
 C        -0.672635         1.400240         0.674901
 C         0.270398         2.693434         0.685749
 C        -0.289852         3.391784         1.942985
 C        -1.248051         2.443841         2.695328
 C        -1.151042         1.023014         2.098228
 C        -1.733131         3.496393         1.761410
 O        -2.330460         3.129151         0.590047
 C        -1.968150         1.838137        -0.015781
 H         0.564514        -0.039624         0.342810
 H         1.311526         2.490544         0.776921
 H         0.098760         3.397460        -0.226526
 H         0.133547         4.209096         2.340776
 H        -1.281915         2.537331         3.836957
 H        -0.377198         0.551174         2.673954
 H        -2.238943         0.563426         2.097799
 H        -2.210311         4.395025         2.296912
 H        -2.763635         1.097522         0.018366
 H        -1.825403         1.900287        -1.133453
