19
Iteration:  2291charge 0 multiplicity 1
 O        -0.086933         0.242721        -0.073569
 C        -0.616101         1.436670         0.582224
 C         0.273031         2.713392         0.639734
 C        -0.296202         3.406127         1.803044
 C        -1.191553         2.457351         2.703586
 C        -0.982709         1.076549         2.131220
 C        -1.762437         3.430678         1.805783
 O        -2.474923         3.174457         0.568987
 C        -2.069258         1.869412         0.064827
 H        -0.354122        -0.448185         0.575966
 H         1.231273         2.253147         0.874837
 H         0.332485         3.238464        -0.347074
 H         0.348031         4.182807         2.368266
 H        -1.503749         2.505941         3.819904
 H        -0.163455         0.744249         2.765116
 H        -2.066438         0.762356         2.163040
 H        -2.157463         4.338767         2.343878
 H        -2.816319         1.150946         0.478426
 H        -2.337707         1.978072        -0.952297
