19
Iteration:  2892charge 0 multiplicity 1
 O        -0.086070         0.282972        -0.094386
 C        -0.748456         1.400548         0.668117
 C         0.133832         2.587221         0.565886
 C        -0.324913         3.532637         1.750641
 C        -1.036763         2.506089         2.766082
 C        -0.790376         1.087929         2.228828
 C        -1.761475         3.514210         1.783344
 O        -2.514986         3.105517         0.618231
 C        -2.128339         1.757463         0.106205
 H        -0.061106         0.526756        -1.047464
 H         1.127115         2.196326         0.681425
 H        -0.068270         3.190402        -0.361973
 H         0.148602         4.461241         2.038969
 H        -1.083592         2.678269         3.832592
 H         0.162847         0.664258         2.624744
 H        -1.674418         0.462279         2.541126
 H        -2.294032         4.124129         2.373672
 H        -2.921396         0.984031         0.287325
 H        -2.066784         1.922881        -0.984162
