19
Iteration:  2066
 O        -0.156607         0.272566        -0.120442
 C        -0.704301         1.383114         0.618517
 C         0.243960         2.698320         0.778782
 C        -0.201154         3.411566         1.972317
 C        -1.152022         2.461045         2.693025
 C        -1.214226         1.086874         2.164147
 C        -1.777423         3.524203         1.772209
 O        -2.356585         3.105845         0.524704
 C        -1.973210         1.814674        -0.029230
 H         0.802266         0.410792        -0.248256
 H         1.346564         2.414472         0.730547
 H         0.119242         3.236916        -0.207938
 H         0.520280         4.134278         2.474965
 H        -1.481533         2.656932         3.725629
 H        -0.605244         0.326358         2.712252
 H        -2.266766         0.857471         2.311855
 H        -2.316731         4.383920         2.050891
 H        -2.774477         1.059734         0.197456
 H        -2.016929         1.964766        -1.062490
