19
Iteration:  2921
 O        -0.255856         0.348880        -0.211392
 C        -0.685048         1.433568         0.691839
 C         0.279639         2.708049         0.574476
 C        -0.308189         3.479607         1.836201
 C        -1.145181         2.520785         2.617839
 C        -0.845705         1.072525         2.171638
 C        -1.816826         3.532854         1.725211
 O        -2.377788         3.006718         0.520692
 C        -2.116592         1.681623         0.426874
 H         0.113978         0.645745        -1.040706
 H         1.374252         2.293199         0.759795
 H         0.078732         3.330594        -0.223874
 H         0.037626         4.276596         2.414129
 H        -0.974030         2.663214         3.678059
 H         0.102857         0.883013         2.704614
 H        -1.539960         0.352766         2.555184
 H        -2.448037         4.315164         2.250914
 H        -2.852931         1.019948         0.869832
 H        -2.327719         1.441073        -0.661167
