19
Iteration:  1681charge 0 multiplicity 1
 O        -0.224196         0.237697        -0.039732
 C        -0.655971         1.473196         0.600720
 C         0.409712         2.515973         0.778350
 C        -0.318501         3.443625         1.819338
 C        -1.239640         2.448866         2.709539
 C        -1.046218         1.076131         2.056306
 C        -1.777274         3.489137         1.743024
 O        -2.599901         3.057640         0.697941
 C        -1.889137         2.058364        -0.103350
 H         0.521989        -0.033535         0.564874
 H         1.440693         2.221270         1.232898
 H         0.765560         3.016382        -0.168551
 H         0.316046         4.224568         2.310632
 H        -1.482469         2.740671         3.723715
 H        -0.172563         0.563749         2.468391
 H        -1.879055         0.405725         2.069886
 H        -2.299343         4.224396         2.212186
 H        -2.578690         1.258427        -0.448653
 H        -1.484609         2.647247        -0.952062
