19
Iteration:  1534
 O        -0.295693         0.260959        -0.204249
 C        -0.604318         1.368401         0.664273
 C         0.386445         2.584303         0.880737
 C        -0.304556         3.533773         1.883745
 C        -1.241228         2.452327         2.622870
 C        -0.924894         1.075549         2.149084
 C        -1.871629         3.487597         1.710922
 O        -2.531119         3.073464         0.583454
 C        -1.911003         2.002534         0.005090
 H         0.399437        -0.150440         0.291500
 H         1.402048         2.204429         1.250686
 H         0.761841         2.931459        -0.091490
 H         0.097723         4.381683         2.425924
 H        -1.418457         2.582046         3.626134
 H        -0.065679         0.739915         2.642295
 H        -1.742540         0.271917         2.277379
 H        -2.400711         4.327792         2.299946
 H        -2.581151         1.094552         0.038399
 H        -1.808157         2.274731        -1.046015
