19
Iteration:  2714charge 0 multiplicity 1
 O        -0.072491         0.323828        -0.056126
 C        -0.717450         1.408195         0.608837
 C         0.159374         2.630393         0.586391
 C        -0.362528         3.470749         1.715343
 C        -1.116108         2.477737         2.695422
 C        -0.729189         1.101763         2.203520
 C        -1.834491         3.473043         1.749655
 O        -2.429919         3.116514         0.596132
 C        -2.173557         1.810699         0.244498
 H        -0.615851        -0.045085        -0.793682
 H         1.248837         2.312886         0.706124
 H         0.225428         3.117294        -0.396700
 H         0.294959         4.307749         2.010704
 H        -1.389730         2.568674         3.727177
 H         0.298554         0.741520         2.553392
 H        -1.436502         0.299146         2.471704
 H        -2.234630         4.448987         2.226272
 H        -2.943740         1.131291         0.812557
 H        -2.344535         1.666145        -0.808071
