19
Iteration:  3504
 O        -0.114294         0.303275        -0.000071
 C        -0.639830         1.459695         0.548757
 C         0.228212         2.704337         0.484784
 C        -0.293414         3.569400         1.592844
 C        -0.883859         2.665469         2.714437
 C        -0.791461         1.254685         2.120835
 C        -1.817945         3.428320         1.804242
 O        -2.777360         2.708912         0.977892
 C        -2.094240         1.814951         0.043154
 H        -0.860318        -0.304608        -0.152681
 H         1.266237         2.438567         0.537508
 H        -0.078144         3.085279        -0.491160
 H         0.330131         4.507547         1.666097
 H        -0.789575         2.666423         3.859385
 H         0.127788         0.818075         2.396812
 H        -1.475086         0.486885         2.403479
 H        -2.269380         4.315850         2.197057
 H        -2.693434         0.898969        -0.014560
 H        -2.013368         2.184530        -0.948194
