19
Iteration:  2213
 O        -0.256221         0.185169         0.035304
 C        -0.627971         1.464280         0.634295
 C         0.327764         2.601759         0.761380
 C        -0.311510         3.476105         1.846125
 C        -1.178514         2.487404         2.642807
 C        -1.006366         1.098604         2.046087
 C        -1.780298         3.545721         1.761111
 O        -2.534682         3.057644         0.643122
 C        -1.866405         1.929844        -0.021358
 H        -0.658698         0.192055        -0.840727
 H         1.205423         2.276368         1.261562
 H         0.583920         3.100171        -0.208055
 H         0.215918         4.202537         2.332660
 H        -1.101408         2.660578         3.675913
 H        -0.048252         0.612307         2.291420
 H        -1.731468         0.282641         2.175049
 H        -2.423505         4.204742         2.278415
 H        -2.557517         1.091761        -0.072488
 H        -1.742319         2.306625        -0.994037
