19
Iteration:  1118charge 0 multiplicity 1
 O        -0.122691         0.291846        -0.088782
 C        -0.657679         1.364979         0.660705
 C         0.318297         2.698768         0.753161
 C        -0.279518         3.398380         1.873036
 C        -1.183273         2.501021         2.684950
 C        -1.022638         1.083308         2.083541
 C        -1.802650         3.442189         1.765094
 O        -2.542644         3.108926         0.637871
 C        -1.982478         1.897597        -0.069035
 H         0.490540        -0.187401         0.495412
 H         1.383217         2.405803         0.871267
 H         0.323110         3.329404        -0.143083
 H         0.079023         4.293796         2.270395
 H        -1.394050         2.479100         3.694469
 H        -0.331761         0.445908         2.630885
 H        -1.984533         0.545364         2.142949
 H        -2.297816         4.274079         2.214212
 H        -2.842178         1.187583        -0.089030
 H        -1.690970         2.240254        -1.099990
