19
Iteration:  3355charge 0 multiplicity 1
 O        -0.020809         0.375692        -0.156509
 C        -0.748343         1.362100         0.661102
 C         0.048292         2.693581         0.536486
 C        -0.292891         3.481890         1.722854
 C        -0.968007         2.559011         2.709804
 C        -0.754041         1.108267         2.215984
 C        -1.789836         3.472363         1.751047
 O        -2.576867         3.062157         0.726051
 C        -2.227354         1.674685         0.127405
 H         0.348203        -0.222455         0.493294
 H         1.161016         2.475171         0.359935
 H        -0.190672         3.321365        -0.366343
 H         0.352132         4.336277         2.103017
 H        -0.809387         2.722265         3.784215
 H         0.232312         0.816603         2.474604
 H        -1.534042         0.382030         2.411070
 H        -2.259459         4.388435         2.113555
 H        -2.772216         0.879280         0.588735
 H        -2.410631         1.735632        -0.980254
