19
Iteration:   524charge 0 multiplicity 1
 O        -0.271140         0.316422        -0.142780
 C        -0.676941         1.433006         0.637158
 C         0.306379         2.616674         0.794184
 C        -0.305151         3.470424         1.854596
 C        -1.172209         2.453422         2.783526
 C        -1.130760         1.117682         2.123575
 C        -1.797708         3.528819         1.787168
 O        -2.456244         2.967578         0.626231
 C        -1.846807         1.958834        -0.115399
 H         0.620876         0.008414         0.197931
 H         1.244190         2.220804         1.242883
 H         0.643403         2.833300        -0.254379
 H         0.435891         4.253708         2.373860
 H        -1.212090         2.635692         3.834997
 H        -0.341525         0.430135         2.486898
 H        -2.114386         0.518010         2.030511
 H        -2.376490         4.356400         2.129752
 H        -2.561243         1.178789        -0.277330
 H        -1.461127         2.136964        -1.086502
