19
Iteration:  3353
 O        -0.031683         0.374588        -0.150991
 C        -0.747610         1.360598         0.637862
 C         0.069513         2.699235         0.528604
 C        -0.291904         3.495114         1.724968
 C        -0.974608         2.561405         2.694105
 C        -0.763791         1.108367         2.217927
 C        -1.785618         3.467437         1.750045
 O        -2.581059         3.061675         0.731338
 C        -2.228399         1.670186         0.137070
 H         0.428414        -0.217917         0.469146
 H         1.137562         2.478784         0.375969
 H        -0.143291         3.301233        -0.334279
 H         0.343129         4.317262         2.147862
 H        -0.802209         2.728201         3.814050
 H         0.275585         0.823994         2.504375
 H        -1.578892         0.346106         2.431072
 H        -2.283687         4.378592         2.179740
 H        -2.778519         0.882927         0.614874
 H        -2.358022         1.696148        -0.986142
