19
Iteration:  1501charge 0 multiplicity 1
 O        -0.108883         0.326150        -0.094626
 C        -0.711863         1.428223         0.625083
 C         0.395444         2.541772         0.770455
 C        -0.297637         3.421218         1.838346
 C        -1.131690         2.499426         2.764262
 C        -1.162001         1.133227         2.116243
 C        -1.802795         3.442364         1.756492
 O        -2.555767         2.987803         0.664092
 C        -1.952011         2.029706        -0.134462
 H         0.662507         0.017290         0.417183
 H         1.301609         1.979203         1.110225
 H         0.468737         3.026177        -0.213661
 H         0.188181         4.344565         2.231563
 H        -1.149627         2.631891         3.798903
 H        -0.469609         0.522770         2.662649
 H        -2.181545         0.591824         2.156033
 H        -2.216800         4.420431         2.060396
 H        -2.513036         1.105111        -0.268107
 H        -1.739736         2.445616        -1.112009
