19
Iteration:   833
 O        -0.194579         0.265073        -0.113207
 C        -0.607270         1.410394         0.644352
 C         0.387254         2.487741         0.800972
 C        -0.382110         3.452873         1.802031
 C        -1.257065         2.422904         2.727025
 C        -0.941811         1.075951         2.148687
 C        -1.867526         3.524920         1.747113
 O        -2.603452         3.079631         0.699531
 C        -1.920176         2.054620        -0.186165
 H         0.716491        -0.049541         0.203364
 H         1.228511         2.174005         1.467982
 H         0.788973         2.950596        -0.134257
 H         0.230753         4.227757         2.314014
 H        -1.175723         2.801749         3.800400
 H        -0.049332         0.708427         2.670139
 H        -1.749662         0.312435         2.156689
 H        -2.274318         4.523684         2.199775
 H        -2.587969         1.192225        -0.287590
 H        -1.539821         2.548233        -1.190504
