19
Iteration:  4422charge 0 multiplicity 1
 O        -0.045954         0.389594        -0.158362
 C        -0.741841         1.368780         0.737123
 C         0.122103         2.643755         0.508909
 C        -0.269619         3.526063         1.622807
 C        -0.880389         2.649773         2.735759
 C        -0.803501         1.172179         2.257660
 C        -1.792169         3.541711         1.787617
 O        -2.681794         2.869981         0.767822
 C        -2.121118         1.693342         0.097100
 H        -0.767118        -0.231819        -0.421731
 H         1.206139         2.356129         0.640080
 H         0.043902         2.984813        -0.502388
 H         0.292243         4.396164         1.855667
 H        -0.607521         2.967051         3.720671
 H         0.093249         0.692524         2.659248
 H        -1.773454         0.656555         2.581676
 H        -2.389338         4.314630         2.171546
 H        -2.787230         0.756603         0.305123
 H        -2.056059         1.867732        -0.927340
