19
Iteration:  2068charge 0 multiplicity 1
 O        -0.159030         0.253075        -0.130040
 C        -0.693637         1.387001         0.626080
 C         0.253010         2.695481         0.767875
 C        -0.205646         3.407561         1.962391
 C        -1.132030         2.460655         2.691121
 C        -1.214471         1.085835         2.170813
 C        -1.810436         3.533228         1.774487
 O        -2.355334         3.098684         0.512590
 C        -1.969789         1.829930        -0.023086
 H         0.813641         0.382874        -0.239802
 H         1.286289         2.410878         0.755031
 H         0.059394         3.302174        -0.172842
 H         0.508584         4.120069         2.574915
 H        -1.492816         2.666652         3.745785
 H        -0.625991         0.313858         2.720748
 H        -2.226611         0.847272         2.397432
 H        -2.318305         4.468276         2.136962
 H        -2.775283         1.071010         0.188028
 H        -1.947692         2.048564        -1.075648
