19
Iteration:   625charge 0 multiplicity 1
 O        -0.283343         0.367926        -0.187762
 C        -0.661308         1.389930         0.728381
 C         0.355802         2.602957         0.766776
 C        -0.323645         3.431231         1.834240
 C        -1.241638         2.436713         2.753088
 C        -1.060998         1.080160         2.189720
 C        -1.806711         3.449836         1.740634
 O        -2.428632         3.064124         0.582103
 C        -1.859339         1.964543        -0.033011
 H         0.426254        -0.141637         0.190830
 H         1.378817         2.285039         0.875191
 H         0.202746         2.940324        -0.265538
 H         0.287422         4.369921         2.297080
 H        -1.368173         2.703327         3.810006
 H        -0.160189         0.601467         2.701149
 H        -1.966106         0.477647         2.179652
 H        -2.411898         4.308058         2.088862
 H        -2.519361         1.096512        -0.114315
 H        -1.538799         2.244603        -1.040397
