19
Iteration:  3217
 O        -0.143863         0.363811        -0.138325
 C        -0.738572         1.441490         0.631689
 C         0.249859         2.584810         0.551104
 C        -0.295057         3.437788         1.666071
 C        -1.001355         2.666302         2.737961
 C        -0.861826         1.108725         2.189589
 C        -1.802946         3.465344         1.818157
 O        -2.633042         2.863263         0.814371
 C        -2.072882         1.864775         0.021741
 H         0.385951        -0.276163         0.402795
 H         1.255716         2.515622         0.733611
 H         0.118819         3.071116        -0.392699
 H        -0.060710         4.523938         1.941888
 H        -0.781551         2.740217         3.783991
 H         0.132153         0.801134         2.661871
 H        -1.722763         0.505073         2.380798
 H        -2.255657         4.419642         2.167582
 H        -2.712783         0.996165        -0.109931
 H        -1.892193         2.293780        -0.987309
