19
Iteration:  4879charge 0 multiplicity 1
 O        -0.260996         0.273703        -0.170398
 C        -0.702390         1.379628         0.608855
 C         0.242684         2.724241         0.394592
 C        -0.217770         3.576900         1.689773
 C        -0.998985         2.693796         2.709036
 C        -0.902568         1.281152         2.212422
 C        -1.789127         3.559621         1.803339
 O        -2.609925         2.659951         0.952256
 C        -1.983301         1.737674         0.069080
 H         0.205829        -0.410474         0.354533
 H         1.339597         2.552406         0.530497
 H        -0.078607         3.224687        -0.616181
 H         0.139340         4.593205         1.924653
 H        -0.813971         2.714599         3.736809
 H        -0.170815         0.745787         2.854816
 H        -1.818926         0.868428         2.390822
 H        -2.400824         4.349370         2.176954
 H        -2.704911         0.879156        -0.027961
 H        -1.778872         2.157771        -0.882198
