19
Iteration:  2710
 O        -0.067106         0.326214        -0.083845
 C        -0.698741         1.386361         0.585165
 C         0.231922         2.638824         0.577294
 C        -0.346776         3.449653         1.695820
 C        -1.161578         2.542183         2.727922
 C        -0.724730         1.095958         2.197504
 C        -1.831594         3.481171         1.769728
 O        -2.458283         3.116158         0.591427
 C        -2.207295         1.802701         0.274833
 H        -0.618776        -0.069018        -0.753018
 H         1.288648         2.158351         0.854218
 H         0.282680         3.195041        -0.343060
 H         0.185303         4.281635         2.116806
 H        -1.384881         2.635091         3.797837
 H         0.251180         0.740057         2.480516
 H        -1.458301         0.302582         2.409070
 H        -2.177941         4.327749         2.171839
 H        -2.860518         1.060627         0.774508
 H        -2.458778         1.595030        -0.777688
