19
Iteration:   864
 O        -0.204860         0.375948        -0.166265
 C        -0.664318         1.402702         0.704685
 C         0.307607         2.552609         0.781056
 C        -0.310629         3.434861         1.903269
 C        -1.148798         2.494772         2.749668
 C        -1.076036         1.151951         2.150938
 C        -1.837613         3.460242         1.772077
 O        -2.545182         3.020426         0.600147
 C        -1.858664         1.896977        -0.137038
 H         0.600675         0.069079         0.235720
 H         1.327810         2.150116         0.977711
 H         0.503442         3.016480        -0.234172
 H         0.356241         4.222866         2.341412
 H        -1.189268         2.748819         3.827681
 H        -0.343209         0.515698         2.650397
 H        -2.026012         0.488475         2.135452
 H        -2.300673         4.338896         2.153169
 H        -2.527101         1.075134        -0.279442
 H        -1.578787         2.364337        -1.055629
