19
Iteration:  1938charge 0 multiplicity 1
 O        -0.035777         0.304817        -0.089713
 C        -0.690577         1.317956         0.639983
 C         0.372043         2.453202         0.749969
 C        -0.254778         3.432955         1.694083
 C        -1.211601         2.535272         2.694205
 C        -1.213012         1.113209         2.015118
 C        -1.815253         3.595912         1.924012
 O        -2.648294         3.032944         0.724088
 C        -1.832284         2.047076        -0.082260
 H         0.655794         0.038256         0.552990
 H         1.257147         1.949708         1.412058
 H         0.761905         2.623456        -0.253895
 H         0.340504         4.163907         2.312289
 H        -1.162027         2.560156         3.775523
 H        -0.628171         0.391966         2.633550
 H        -2.202570         0.769167         1.823708
 H        -2.407564         4.365274         2.108729
 H        -2.612263         1.309001        -0.260818
 H        -1.547472         2.540294        -1.084083
