19
Iteration:  2018
 O        -0.240332         0.150641        -0.142275
 C        -0.614140         1.352984         0.714738
 C         0.321509         2.540957         0.870717
 C        -0.346216         3.488653         1.831888
 C        -1.216486         2.442600         2.689493
 C        -0.916139         1.037559         2.154291
 C        -1.818823         3.524266         1.784168
 O        -2.535047         3.267595         0.506725
 C        -1.940128         1.976051        -0.044193
 H         0.715647         0.027897        -0.279967
 H         1.436814         2.125908         1.100811
 H         0.570622         3.062722        -0.074239
 H         0.105413         4.308577         2.357921
 H        -1.486226         2.640793         3.738939
 H        -0.038754         0.650992         2.675881
 H        -1.850410         0.346611         2.252528
 H        -2.440268         4.243105         2.464832
 H        -2.793543         1.309094        -0.160816
 H        -1.685465         2.297086        -1.132426
