19
Iteration:   935charge 0 multiplicity 1
 O        -0.199934         0.334669        -0.144517
 C        -0.714904         1.443040         0.733410
 C         0.329973         2.509191         0.746831
 C        -0.338018         3.485630         1.794348
 C        -1.281950         2.411899         2.786046
 C        -0.933554         1.121897         2.191693
 C        -1.797120         3.360146         1.802069
 O        -2.496732         3.108164         0.583479
 C        -1.936022         2.008086        -0.143385
 H         0.548678        -0.093176         0.224666
 H         1.353543         2.238924         1.016520
 H         0.441196         2.929545        -0.228515
 H         0.025403         4.499443         2.157081
 H        -1.428865         2.494427         3.811019
 H        -0.023401         0.703813         2.681673
 H        -1.707011         0.455640         2.353667
 H        -2.200161         4.331334         2.202737
 H        -2.735723         1.206160        -0.294948
 H        -1.307031         2.132470        -1.089651
