19
Iteration:  1038charge 0 multiplicity 1
 O        -0.190968         0.233750        -0.112056
 C        -0.638420         1.421849         0.611709
 C         0.317285         2.604553         0.736531
 C        -0.343757         3.443848         1.861662
 C        -1.203856         2.484966         2.670066
 C        -1.002711         1.155454         2.107288
 C        -1.855940         3.433572         1.783316
 O        -2.476502         3.052649         0.627752
 C        -1.918481         1.999859        -0.014294
 H         0.707145         0.093837         0.280583
 H         1.257372         2.242149         1.171934
 H         0.405803         3.214501        -0.206206
 H         0.174776         4.126885         2.543900
 H        -1.256450         2.429757         3.830413
 H        -0.224809         0.632194         2.635012
 H        -2.052369         0.657149         2.241822
 H        -2.519177         4.223424         2.261011
 H        -2.584633         1.060923        -0.149703
 H        -1.710918         2.267498        -1.148720
