19
Iteration:  1160charge 0 multiplicity 1
 O        -0.223454         0.311953        -0.124161
 C        -0.653031         1.411463         0.628160
 C         0.314235         2.615774         0.794304
 C        -0.373224         3.511969         1.836856
 C        -1.177527         2.438274         2.708751
 C        -1.003991         1.123391         2.120039
 C        -1.823007         3.429808         1.788670
 O        -2.473180         3.044265         0.665038
 C        -1.920004         1.904802        -0.088108
 H         0.553511        -0.110212         0.353473
 H         1.336325         2.356292         1.046875
 H         0.447369         3.077376        -0.203532
 H         0.066026         4.326289         2.198550
 H        -1.349231         2.663499         3.714941
 H        -0.192810         0.568154         2.526225
 H        -1.902136         0.414931         2.205520
 H        -2.104684         4.404560         2.156744
 H        -2.712711         1.088484        -0.215964
 H        -1.593143         2.345014        -1.108512
