19
Iteration:  3376
 O        -0.036394         0.389030        -0.070480
 C        -0.743136         1.347669         0.624349
 C         0.024309         2.673810         0.423534
 C        -0.343448         3.510792         1.689334
 C        -0.962597         2.561280         2.743219
 C        -0.731108         1.150849         2.191935
 C        -1.809241         3.446167         1.879175
 O        -2.530452         3.026276         0.670833
 C        -2.144419         1.722354         0.183779
 H        -0.531157        -0.466019        -0.117274
 H         1.131203         2.489311         0.267667
 H        -0.196084         3.245215        -0.484701
 H         0.274732         4.416820         1.999325
 H        -0.962263         2.662686         3.852057
 H         0.286216         0.847979         2.491776
 H        -1.566951         0.431585         2.432488
 H        -2.377964         4.214703         2.401958
 H        -2.852220         0.928470         0.424751
 H        -1.846234         1.694515        -0.902130
