19
Iteration:  3451charge 0 multiplicity 1
 O        -0.179958         0.312915        -0.165781
 C        -0.705599         1.405855         0.680454
 C         0.171236         2.643276         0.532880
 C        -0.364518         3.563266         1.589979
 C        -0.890513         2.643141         2.668508
 C        -0.716911         1.183440         2.216384
 C        -1.838101         3.473602         1.765727
 O        -2.755479         2.830853         0.931788
 C        -2.042682         1.791145         0.090827
 H         0.749924         0.207205         0.136538
 H         1.178937         2.290492         0.756417
 H         0.145044         2.824853        -0.524145
 H         0.097729         4.592224         1.700785
 H        -0.782024         2.874439         3.762571
 H         0.255470         0.542957         2.521965
 H        -1.653364         0.550176         2.593318
 H        -2.215268         4.358372         2.249549
 H        -2.731945         0.910185        -0.240985
 H        -1.677985         2.159357        -0.948770
