19
Iteration:  4905
 O        -0.208253         0.257601        -0.003895
 C        -0.722877         1.446240         0.602928
 C         0.245663         2.636948         0.504634
 C        -0.345863         3.549531         1.614163
 C        -0.871576         2.608518         2.643293
 C        -0.693163         1.204322         2.096014
 C        -1.865597         3.422352         1.811886
 O        -2.719906         2.856266         0.866362
 C        -2.067599         1.866023         0.064932
 H         0.152058        -0.302523         0.709165
 H         1.261615         2.520057         0.836178
 H         0.164246         2.991798        -0.515856
 H         0.005453         4.557844         1.843559
 H        -0.811401         2.795285         3.761461
 H         0.164620         0.695874         2.446109
 H        -1.594929         0.562275         2.523229
 H        -2.261989         4.384384         2.280222
 H        -2.648116         0.993190         0.059828
 H        -1.967936         2.226727        -1.002243
