19
Iteration:  1089
 O        -0.163715         0.406046        -0.197218
 C        -0.700352         1.315135         0.692000
 C         0.313189         2.549478         0.810910
 C        -0.345808         3.437478         1.776131
 C        -1.184925         2.574030         2.701406
 C        -0.996747         1.061250         2.149799
 C        -1.919012         3.489403         1.870208
 O        -2.479146         3.110147         0.607313
 C        -1.904254         1.858660        -0.101380
 H         0.498621        -0.182804         0.278676
 H         1.282902         2.122975         1.184657
 H         0.573180         2.895904        -0.208873
 H         0.249033         4.276742         2.430308
 H        -1.122097         2.645196         3.795933
 H        -0.039220         0.595211         2.601825
 H        -1.807141         0.395869         2.371800
 H        -2.429481         4.340711         2.213303
 H        -2.715411         1.166208        -0.168173
 H        -1.587617         2.126995        -1.064746
