19
Iteration:  1924
 O        -0.149219         0.288265        -0.091050
 C        -0.654011         1.433992         0.641475
 C         0.384241         2.470373         0.803749
 C        -0.301162         3.425898         1.830248
 C        -1.133820         2.518234         2.693183
 C        -1.230039         1.122992         2.082291
 C        -1.829405         3.500255         1.754224
 O        -2.565269         2.998763         0.702491
 C        -1.867281         2.029128        -0.119075
 H         0.718104         0.061101         0.289782
 H         1.278597         2.061037         1.178365
 H         0.627714         3.015512        -0.114170
 H         0.238116         4.312182         2.079177
 H        -1.133933         2.640757         3.765356
 H        -0.488667         0.464351         2.580422
 H        -2.220094         0.732324         2.128494
 H        -2.169885         4.388737         2.327057
 H        -2.599565         1.243637        -0.463124
 H        -1.478934         2.533808        -0.994783
