19
Iteration:  3738charge 0 multiplicity 1
 O        -0.226314         0.232938         0.052749
 C        -0.594321         1.429740         0.591341
 C         0.204539         2.840150         0.370530
 C        -0.344088         3.656848         1.524646
 C        -0.907648         2.628827         2.657672
 C        -0.772437         1.204071         2.069232
 C        -1.836983         3.444769         1.843103
 O        -2.679930         2.736058         0.987756
 C        -2.071284         1.670743         0.160605
 H         0.281148         0.420594        -0.770867
 H         1.238176         2.447180         0.617974
 H        -0.019136         3.432777        -0.513839
 H         0.088545         4.621733         1.766923
 H        -0.457771         2.820423         3.672886
 H         0.102737         0.706598         2.530521
 H        -1.726445         0.596392         2.301949
 H        -2.336652         4.214297         2.324462
 H        -2.657627         0.717288         0.475614
 H        -2.382818         2.064494        -0.851533
