19
Iteration:  1597
 O         0.004374         0.238960        -0.042821
 C        -0.627466         1.384184         0.560956
 C         0.232747         2.624079         0.678026
 C        -0.293230         3.404329         1.912186
 C        -1.273786         2.403970         2.635245
 C        -1.073943         0.983634         2.087800
 C        -1.773404         3.567543         1.807893
 O        -2.442392         3.273716         0.560360
 C        -2.083910         1.907871         0.052815
 H         0.765297         0.051814         0.501090
 H         1.159305         2.330189         1.060641
 H         0.176689         3.146162        -0.278230
 H         0.359753         4.166533         2.383035
 H        -1.402213         2.445025         3.670860
 H        -0.261913         0.436537         2.715649
 H        -2.005246         0.422569         2.064363
 H        -2.200689         4.429297         2.221892
 H        -2.864701         1.198947         0.463400
 H        -2.227092         1.928839        -1.117426
