19
Iteration:   131
 O        -0.279361         0.357410        -0.145351
 C        -0.659843         1.435540         0.658404
 C         0.435177         2.548201         0.832853
 C        -0.265262         3.376674         1.900817
 C        -1.244468         2.515498         2.695516
 C        -1.010704         1.048348         2.115241
 C        -1.769234         3.556941         1.733661
 O        -2.608716         3.057168         0.583098
 C        -1.934137         1.929063        -0.055643
 H         0.501049        -0.068436         0.195411
 H         1.417521         2.126668         1.356009
 H         0.608964         3.095442        -0.038440
 H         0.235775         4.228260         2.235130
 H        -1.352036         2.494082         3.803258
 H        -0.020025         0.679194         2.635082
 H        -1.749170         0.328948         2.280673
 H        -2.135758         4.573983         1.962152
 H        -2.547730         1.044814        -0.077663
 H        -1.612388         2.005519        -1.138663
