19
Iteration:  1144charge 0 multiplicity 1
 O        -0.256740         0.278273        -0.040114
 C        -0.646499         1.519059         0.564802
 C         0.312366         2.703316         0.740628
 C        -0.258140         3.366921         1.925448
 C        -1.169433         2.527730         2.765268
 C        -1.027105         1.152023         2.012659
 C        -1.824822         3.488344         1.813573
 O        -2.490125         2.958304         0.581108
 C        -1.931026         1.893288        -0.085262
 H         0.509577        -0.002406         0.514542
 H         1.292717         2.182019         1.008364
 H         0.552328         3.364126        -0.128246
 H         0.344218         4.308092         2.443097
 H        -1.205558         2.343416         3.885656
 H        -0.190986         0.472921         2.458273
 H        -1.894960         0.498181         1.985441
 H        -2.672491         4.105971         2.176201
 H        -2.604015         1.083643         0.051321
 H        -1.879976         2.113195        -1.107842
