19
Iteration:  3537charge 0 multiplicity 1
 O        -0.158891         0.301717        -0.180566
 C        -0.648672         1.386488         0.699714
 C         0.167755         2.583319         0.605369
 C        -0.438436         3.653884         1.501560
 C        -0.882002         2.620634         2.669476
 C        -0.612072         1.146439         2.255032
 C        -1.878194         3.470476         1.813671
 O        -2.731623         2.887207         0.849514
 C        -2.035630         1.734060         0.152013
 H        -0.904741         0.101290        -0.800253
 H         1.221945         2.676272         0.844758
 H         0.160561         2.824671        -0.473758
 H         0.129145         4.617434         1.584947
 H        -0.742308         2.900970         3.746394
 H         0.365188         1.019798         2.532705
 H        -1.299005         0.497528         2.722173
 H        -2.454471         4.210056         2.270615
 H        -2.702448         0.885385         0.105686
 H        -1.833469         2.152070        -0.797518
