19
Iteration:  2898
 O        -0.129739         0.313024        -0.153813
 C        -0.716893         1.382060         0.700260
 C         0.131033         2.612069         0.585118
 C        -0.307512         3.513167         1.760027
 C        -1.054148         2.532647         2.769465
 C        -0.795502         1.119682         2.263177
 C        -1.769242         3.488549         1.746770
 O        -2.488769         3.115075         0.588624
 C        -2.095734         1.706717         0.151728
 H        -0.008140         0.622593        -1.081350
 H         1.240943         2.258244         0.647661
 H        -0.169338         3.119346        -0.307418
 H         0.274309         4.407558         2.017812
 H        -1.186756         2.606982         3.866091
 H         0.011917         0.512388         2.700896
 H        -1.628092         0.436235         2.353045
 H        -2.388123         4.258186         2.435374
 H        -2.803843         0.897675         0.420233
 H        -2.374741         1.834499        -0.933117
