19
Iteration:  3056charge 0 multiplicity 1
 O        -0.310694         0.197614        -0.146003
 C        -0.607784         1.405846         0.671673
 C         0.328171         2.570549         0.598295
 C        -0.314495         3.535241         1.615169
 C        -0.997327         2.630748         2.706600
 C        -0.833301         1.173052         2.290582
 C        -1.919459         3.412516         1.750764
 O        -2.755346         2.819807         0.865112
 C        -1.909442         2.063752        -0.024762
 H         0.389090         0.451684        -0.779783
 H         1.250745         2.176586         1.104595
 H         0.454036         3.006754        -0.368967
 H         0.163744         4.576178         1.867148
 H        -0.770262         2.694186         3.798905
 H         0.176447         0.941991         2.616292
 H        -1.549692         0.397320         2.696843
 H        -2.363448         4.236690         2.398622
 H        -2.351709         1.141909        -0.424530
 H        -1.549535         2.644131        -0.914857
