19
Iteration:  3872charge 0 multiplicity 1
 O        -0.046801         0.423494        -0.168216
 C        -0.674112         1.373852         0.710986
 C         0.119351         2.630960         0.390642
 C        -0.337630         3.478682         1.527018
 C        -0.917771         2.699160         2.661944
 C        -0.537739         1.208758         2.285801
 C        -1.855218         3.491714         1.762570
 O        -2.745328         2.838895         0.897875
 C        -2.251267         1.691919         0.253821
 H        -0.629638        -0.335514        -0.414443
 H         1.166803         2.244654         0.529887
 H        -0.067135         3.012028        -0.599896
 H         0.091282         4.457838         1.876980
 H        -0.755928         3.025675         3.662970
 H         0.498996         0.972459         2.542926
 H        -1.032315         0.380778         2.753898
 H        -2.399150         4.399134         2.219119
 H        -2.961441         0.850655         0.219540
 H        -2.017819         1.953004        -0.779047
