19
Iteration:  2515charge 0 multiplicity 1
 O        -0.116778         0.238169         0.002327
 C        -0.715251         1.376965         0.618897
 C         0.163409         2.763557         0.531208
 C        -0.323734         3.524911         1.787372
 C        -1.097760         2.483103         2.716747
 C        -0.878502         1.158018         2.024617
 C        -1.803741         3.433181         1.860376
 O        -2.382401         3.122842         0.615847
 C        -2.126815         1.744864         0.075244
 H        -0.222056        -0.500941         0.611551
 H         1.269433         2.483309         0.746418
 H         0.105815         3.288358        -0.397125
 H         0.212999         4.408490         2.267427
 H        -1.123424         2.547151         3.883202
 H         0.024888         0.601866         2.433543
 H        -1.701321         0.391611         2.151617
 H        -2.269911         4.349656         2.332058
 H        -2.847263         1.037063         0.522153
 H        -2.297022         1.866451        -1.027565
