19
Iteration:  4616
 O        -0.352209         0.272318        -0.111257
 C        -0.688634         1.427931         0.650065
 C         0.301410         2.672605         0.553378
 C        -0.278436         3.673519         1.675380
 C        -0.927672         2.660483         2.751542
 C        -0.869078         1.201178         2.213419
 C        -1.779837         3.451226         1.768381
 O        -2.602376         2.753581         0.817998
 C        -2.027487         1.760859         0.028854
 H         0.570895         0.365892        -0.459961
 H         1.272991         2.313804         0.736443
 H         0.225244         3.094134        -0.452097
 H         0.095342         4.649572         1.856260
 H        -1.014867         2.686781         3.879897
 H        -0.057401         0.569704         2.684614
 H        -1.905231         0.743421         2.421000
 H        -2.435579         4.089713         2.289724
 H        -2.594888         0.870398        -0.072585
 H        -1.884451         2.080986        -1.082353
