19
Iteration:   884
 O        -0.215819         0.308173        -0.096985
 C        -0.620740         1.466155         0.528454
 C         0.415010         2.704000         0.748617
 C        -0.327270         3.430356         1.855351
 C        -1.192043         2.447520         2.780905
 C        -1.198356         1.101758         2.100594
 C        -1.799245         3.426450         1.766531
 O        -2.430081         2.992019         0.648373
 C        -1.957646         1.903612        -0.047791
 H         0.635342         0.007413         0.260092
 H         1.441367         2.518353         1.121585
 H         0.746105         3.422244        -0.062659
 H         0.143868         4.431991         2.192841
 H        -1.242543         2.765729         3.791990
 H        -0.566019         0.352763         2.587829
 H        -2.274045         0.616864         2.186074
 H        -2.254818         4.244827         2.069005
 H        -2.605223         1.042639         0.124133
 H        -1.759660         2.092160        -1.095974
