19
Iteration:  2412charge 0 multiplicity 1
 O        -0.159359         0.332985        -0.019315
 C        -0.702787         1.423600         0.630468
 C         0.244550         2.543209         0.572736
 C        -0.342419         3.428598         1.755542
 C        -1.044666         2.552315         2.724074
 C        -0.978295         1.144408         2.215344
 C        -1.809358         3.499812         1.805180
 O        -2.574383         2.924802         0.739944
 C        -1.862315         1.964668        -0.098024
 H        -0.769618        -0.415844         0.191382
 H         1.307183         2.234133         0.720063
 H         0.174611         3.145525        -0.380752
 H         0.294285         4.192016         2.233635
 H        -0.988457         2.780769         3.760153
 H        -0.114346         0.596345         2.625185
 H        -1.957936         0.580252         2.195088
 H        -2.374415         4.307295         2.179142
 H        -2.549874         1.213171        -0.638240
 H        -1.567163         2.619766        -0.879752
