19
Iteration:  1853charge 0 multiplicity 1
 O        -0.126667         0.326764        -0.100347
 C        -0.744160         1.389216         0.666422
 C         0.301916         2.548001         0.845546
 C        -0.248672         3.427253         1.851546
 C        -1.148248         2.422238         2.718307
 C        -1.039462         1.022727         2.126375
 C        -1.841624         3.495191         1.718589
 O        -2.497352         3.237213         0.550081
 C        -1.991171         1.938114        -0.073168
 H         0.523447        -0.101249         0.465198
 H         1.285372         2.166918         1.104993
 H         0.425041         2.889143        -0.165116
 H         0.381043         4.245083         2.287541
 H        -1.406051         2.478081         3.767072
 H        -0.163510         0.602317         2.632644
 H        -1.994472         0.341113         2.175513
 H        -2.333237         4.246764         2.224852
 H        -2.665560         1.115860        -0.007599
 H        -1.764048         2.149229        -1.137913
