19
Iteration:  2094
 O        -0.264096         0.252055        -0.051598
 C        -0.663622         1.385753         0.644303
 C         0.266313         2.583807         0.749967
 C        -0.331144         3.444538         1.802274
 C        -1.278412         2.388601         2.758347
 C        -0.972248         1.073931         2.116747
 C        -1.817947         3.489666         1.812795
 O        -2.399572         3.191090         0.564968
 C        -1.863826         1.958497        -0.080237
 H         0.671596         0.037777         0.178598
 H         1.263751         2.260655         1.070842
 H         0.272727         2.918685        -0.275776
 H         0.221604         4.289539         2.069322
 H        -1.426056         2.570123         3.797541
 H        -0.171728         0.554998         2.632837
 H        -1.844720         0.421808         2.414793
 H        -2.308550         4.385045         2.233185
 H        -2.689546         1.255908        -0.060837
 H        -1.673852         2.378982        -1.134534
