19
Iteration:   976charge 0 multiplicity 1
 O        -0.224214         0.265149        -0.173031
 C        -0.605297         1.392579         0.578059
 C         0.426146         2.669319         0.846268
 C        -0.293463         3.484846         1.886253
 C        -1.288047         2.474298         2.753545
 C        -1.042248         1.159438         2.052042
 C        -1.798461         3.512267         1.777528
 O        -2.522777         3.027019         0.618306
 C        -1.956237         1.848420        -0.024511
 H         0.643432        -0.091755         0.151546
 H         1.453869         2.341459         1.096257
 H         0.567108         3.159835        -0.125750
 H         0.144712         4.308632         2.327661
 H        -1.204131         2.323328         3.840877
 H        -0.397378         0.538660         2.708183
 H        -1.966494         0.544339         2.026840
 H        -2.276466         4.558707         2.122631
 H        -2.620867         1.028426         0.095763
 H        -1.936623         2.180078        -1.011549
