19
Iteration:   570
 O        -0.178842         0.287367        -0.031720
 C        -0.645836         1.447215         0.595348
 C         0.393173         2.550275         0.763720
 C        -0.303338         3.362518         1.790579
 C        -1.208062         2.419381         2.694843
 C        -1.085537         1.104308         2.045057
 C        -1.795809         3.561984         1.754257
 O        -2.636431         3.056516         0.723419
 C        -1.878324         1.978563        -0.105201
 H         0.732512         0.116447         0.335035
 H         1.304401         1.970004         1.156891
 H         0.899060         3.104580        -0.058504
 H         0.252803         4.314609         2.427101
 H        -1.181099         2.689279         3.782683
 H        -0.377539         0.476310         2.717053
 H        -2.045725         0.556056         1.995139
 H        -2.224280         4.516479         2.251182
 H        -2.599459         1.215929        -0.354179
 H        -1.673314         2.504383        -0.992290
