19
Iteration:  4971
 O        -0.280432         0.356384        -0.115012
 C        -0.715733         1.410446         0.638298
 C         0.199153         2.793507         0.455783
 C        -0.251595         3.549347         1.693027
 C        -0.995883         2.588409         2.671059
 C        -0.792755         1.186490         2.269055
 C        -1.749708         3.455993         1.779793
 O        -2.522926         2.842732         0.721659
 C        -2.130802         1.637381         0.161846
 H         0.682158         0.375912         0.024269
 H         1.276448         2.555104         0.414172
 H        -0.190301         3.185385        -0.480134
 H         0.354508         4.355085         2.128357
 H        -0.908228         2.816583         3.821611
 H        -0.032215         0.709233         2.698740
 H        -1.771767         0.648502         2.640716
 H        -2.392038         4.347602         2.090855
 H        -2.689916         0.899835         0.615834
 H        -2.460088         1.517373        -0.896407
