19
Iteration:  4495
 O        -0.197839         0.229220         0.032142
 C        -0.695007         1.405289         0.614764
 C         0.235422         2.705318         0.542192
 C        -0.348850         3.557417         1.601817
 C        -0.988480         2.534960         2.715012
 C        -0.722764         1.162557         2.186862
 C        -1.803192         3.435413         1.853474
 O        -2.625591         3.016074         0.707550
 C        -2.158210         1.725341         0.108281
 H        -0.059002         0.469834        -0.901676
 H         1.275103         2.458079         0.749258
 H         0.304349         3.209633        -0.459283
 H         0.296514         4.447961         1.887421
 H        -0.728757         2.901815         3.671416
 H         0.311227         0.937029         2.433129
 H        -1.379048         0.326155         2.493717
 H        -2.308574         4.252529         2.366357
 H        -2.855810         0.944084         0.303186
 H        -2.147388         1.865855        -1.043779
