19
Iteration:  3892
 O        -0.160057         0.376495        -0.208715
 C        -0.646959         1.391973         0.638205
 C         0.220597         2.623179         0.492223
 C        -0.372064         3.659980         1.489680
 C        -0.904388         2.663530         2.661609
 C        -0.650034         1.273989         2.169909
 C        -1.834318         3.447624         1.812332
 O        -2.765495         2.791977         0.917652
 C        -2.097282         1.656933         0.295724
 H        -0.660999        -0.456571        -0.195752
 H         1.357033         2.461195         0.866179
 H         0.263803         3.025080        -0.530730
 H         0.186878         4.638520         1.561993
 H        -0.815457         2.912777         3.698130
 H         0.276244         0.857519         2.500446
 H        -1.392517         0.564321         2.666651
 H        -2.301186         4.286041         2.339138
 H        -2.590341         0.782510         0.669464
 H        -2.336930         1.686080        -0.840213
