19
Iteration:  1009
 O        -0.107885         0.400313        -0.072735
 C        -0.735427         1.346122         0.675447
 C         0.230387         2.592918         0.773946
 C        -0.306905         3.418921         1.814840
 C        -1.123250         2.464171         2.755993
 C        -1.049280         1.031143         2.143848
 C        -1.796401         3.482659         1.765662
 O        -2.513549         3.095146         0.583124
 C        -1.972232         1.933885        -0.134726
 H         0.720110         0.104139         0.418222
 H         1.253300         2.225862         1.062036
 H         0.190379         3.041681        -0.231350
 H         0.170958         4.252136         2.265637
 H        -0.914845         2.297019         3.827097
 H        -0.182635         0.528448         2.682758
 H        -2.032738         0.538888         2.304352
 H        -2.322767         4.444627         2.267516
 H        -2.613403         1.179736        -0.493945
 H        -1.524607         2.285662        -1.019569
