19
Iteration:  2071
 O        -0.161722         0.231634        -0.139631
 C        -0.679323         1.388208         0.640996
 C         0.259347         2.686022         0.741619
 C        -0.215246         3.408974         1.958350
 C        -1.115254         2.473310         2.698620
 C        -1.203350         1.083996         2.175550
 C        -1.845012         3.541437         1.778159
 O        -2.354660         3.096349         0.501597
 C        -1.970627         1.850246        -0.014116
 H         0.792160         0.345103        -0.214270
 H         1.282690         2.384875         0.799408
 H         0.006026         3.357831        -0.089227
 H         0.400807         4.039695         2.615454
 H        -1.445679         2.658802         3.727341
 H        -0.628719         0.330485         2.713562
 H        -2.249196         0.775729         2.441334
 H        -2.300183         4.495589         2.230359
 H        -2.755503         1.106023         0.154499
 H        -1.831262         2.127630        -1.134311
