19
Iteration:  2800
 O        -0.121563         0.284530        -0.134721
 C        -0.691834         1.377251         0.643907
 C         0.424250         2.481264         0.739194
 C        -0.339798         3.510275         1.520829
 C        -0.995573         2.632770         2.693189
 C        -0.878724         1.213627         2.194044
 C        -1.784729         3.422471         1.725025
 O        -2.805883         2.852923         0.943312
 C        -2.090078         1.962811         0.030857
 H         0.332716         0.619338        -0.926885
 H         1.388830         2.016677         1.248993
 H         0.437022         2.880809        -0.209006
 H         0.103413         4.545393         1.563648
 H        -0.908928         3.009037         3.718883
 H         0.065128         0.725293         2.539484
 H        -1.742940         0.609236         2.459700
 H        -2.131069         4.506646         2.111925
 H        -2.906682         1.256338        -0.319976
 H        -1.762481         2.472124        -0.882721
