19
Iteration:    86
 O        -0.137766         0.269065        -0.007056
 C        -0.689779         1.442194         0.600095
 C         0.291312         2.563520         0.719432
 C        -0.329047         3.406030         1.773873
 C        -1.045834         2.417784         2.787003
 C        -1.215316         1.106705         2.047219
 C        -1.832014         3.519181         1.823408
 O        -2.502654         3.051322         0.682823
 C        -1.871663         2.033514        -0.136029
 H         0.688329         0.034010         0.444289
 H         1.371328         2.229702         1.034393
 H         0.213919         3.038175        -0.206153
 H         0.213843         4.237308         2.292410
 H        -0.897442         2.623989         3.817165
 H        -0.570187         0.223748         2.438689
 H        -2.197254         0.722208         2.104625
 H        -2.338316         4.389879         2.140186
 H        -2.508491         1.172807        -0.280481
 H        -1.654716         2.394451        -1.182482
