19
Iteration:  2131charge 0 multiplicity 1
 O        -0.293584         0.275238        -0.181282
 C        -0.587497         1.430434         0.625582
 C         0.463874         2.507976         0.891910
 C        -0.282095         3.394233         1.898925
 C        -1.132794         2.580270         2.708157
 C        -1.007100         1.139797         2.154032
 C        -1.874197         3.527101         1.752398
 O        -2.635731         3.040906         0.569213
 C        -1.913799         1.964486        -0.109045
 H        -0.142512        -0.519483         0.370877
 H         1.478893         2.125737         1.285924
 H         0.752278         3.166814         0.054206
 H         0.304228         4.262715         2.348747
 H        -1.228163         2.460397         3.807293
 H        -0.155866         0.567080         2.518512
 H        -1.976217         0.683529         2.303387
 H        -2.190666         4.521582         2.085593
 H        -2.471330         1.007439        -0.124992
 H        -1.738582         2.198027        -1.135719
