19
Iteration:  1694charge 0 multiplicity 1
 O        -0.125365         0.288830         0.010261
 C        -0.741563         1.379315         0.598401
 C         0.366920         2.567739         0.839590
 C        -0.213377         3.390087         1.863099
 C        -1.131767         2.497489         2.639973
 C        -1.125604         1.112333         2.022922
 C        -1.800967         3.512809         1.758585
 O        -2.611963         2.989289         0.714552
 C        -1.948866         2.095814        -0.179201
 H         0.595594        -0.048403         0.532245
 H         1.245150         1.901596         1.224905
 H         0.507335         3.073924        -0.138579
 H         0.195610         4.305204         2.269020
 H        -1.191509         2.344853         3.684474
 H        -0.329828         0.438582         2.536715
 H        -2.030773         0.567898         2.132375
 H        -2.065466         4.473240         2.110741
 H        -2.707817         1.364240        -0.486044
 H        -1.516273         2.521753        -1.188150
