19
Iteration:  3959charge 0 multiplicity 1
 O        -0.029990         0.305175        -0.076467
 C        -0.708173         1.309320         0.676810
 C         0.142213         2.670881         0.421889
 C        -0.391974         3.541011         1.470537
 C        -0.841996         2.630825         2.632527
 C        -0.655221         1.190742         2.178843
 C        -1.811494         3.498478         1.855552
 O        -2.797340         2.826157         0.956730
 C        -2.211067         1.840581         0.089454
 H         0.179308        -0.393115         0.601786
 H         1.350160         2.716922         0.583266
 H         0.069314         2.962040        -0.618861
 H         0.095917         4.506682         1.753257
 H        -0.479611         2.920865         3.612177
 H         0.356287         1.020578         2.497118
 H        -1.377500         0.407882         2.658433
 H        -2.348098         4.351664         2.531429
 H        -2.847360         1.018237         0.197987
 H        -2.268041         2.256697        -1.011572
