19
Iteration:  4197charge 0 multiplicity 1
 O        -0.053123         0.366333        -0.087035
 C        -0.749887         1.357730         0.670681
 C         0.079924         2.621266         0.493219
 C        -0.322597         3.628634         1.554655
 C        -0.799403         2.665132         2.676786
 C        -0.673300         1.200897         2.193898
 C        -1.808742         3.515589         1.823298
 O        -2.696462         2.888036         0.790329
 C        -2.169690         1.608765         0.250172
 H        -0.672711         0.089422        -0.805522
 H         1.161229         2.416651         0.617023
 H        -0.087358         2.995628        -0.607410
 H         0.147207         4.586692         1.569617
 H        -0.761266         2.871198         3.748151
 H         0.211934         0.591460         2.580580
 H        -1.483884         0.547647         2.484280
 H        -2.365233         4.267526         2.429528
 H        -2.913160         0.742120         0.448726
 H        -2.145801         1.705968        -0.867803
