19
Iteration:  4692charge 0 multiplicity 1
 O        -0.386994         0.206753        -0.061434
 C        -0.690791         1.467474         0.658614
 C         0.173178         2.731481         0.548034
 C        -0.285191         3.603863         1.695207
 C        -0.860282         2.682526         2.814702
 C        -0.764129         1.192088         2.106946
 C        -1.880786         3.395278         1.878205
 O        -2.564880         2.852920         0.684837
 C        -2.012618         1.739615         0.019851
 H         0.578594         0.160837        -0.145816
 H         1.216467         2.496039         0.697995
 H        -0.019142         3.200431        -0.462070
 H         0.215442         4.497951         2.006607
 H        -0.745426         2.958694         3.949952
 H         0.110591         0.499921         2.364645
 H        -1.644115         0.588587         2.332609
 H        -2.568616         4.142358         2.342607
 H        -2.623546         0.883164         0.078667
 H        -1.684878         1.923052        -1.001112
