19
Iteration:   523charge 0 multiplicity 1
 O        -0.272062         0.316106        -0.141505
 C        -0.673163         1.433559         0.639522
 C         0.313635         2.609090         0.803374
 C        -0.299849         3.467548         1.857399
 C        -1.165925         2.452947         2.782456
 C        -1.125364         1.117415         2.114032
 C        -1.809495         3.532433         1.791714
 O        -2.463237         2.969919         0.617083
 C        -1.846280         1.960416        -0.108948
 H         0.604889         0.006501         0.192355
 H         1.243478         2.246151         1.212306
 H         0.635947         2.848793        -0.241805
 H         0.398908         4.218530         2.358447
 H        -1.200224         2.654842         3.822451
 H        -0.347954         0.452077         2.502376
 H        -2.113685         0.480650         2.046852
 H        -2.361050         4.360668         2.102643
 H        -2.585420         1.183344        -0.247442
 H        -1.471391         2.153474        -1.120246
