19
Iteration:  2283charge 0 multiplicity 1
 O        -0.062358         0.249462        -0.087977
 C        -0.705033         1.410411         0.577157
 C         0.352454         2.670677         0.693638
 C        -0.268346         3.459966         1.820364
 C        -1.220828         2.460044         2.654746
 C        -1.019231         1.067172         2.089893
 C        -1.759008         3.514744         1.772570
 O        -2.490290         3.177846         0.601955
 C        -2.104539         1.844593         0.097338
 H         0.136058        -0.337800         0.656231
 H         1.361869         2.199332         0.772009
 H         0.296541         3.256865        -0.195181
 H         0.329226         4.257991         2.394342
 H        -1.319403         2.566026         3.755407
 H        -0.216043         0.464942         2.580880
 H        -1.877466         0.329781         2.283665
 H        -2.235748         4.374512         2.290833
 H        -2.841132         1.205815         0.569460
 H        -2.322542         1.782297        -1.017711
