19
Iteration:  4968
 O        -0.312223         0.361325        -0.134166
 C        -0.701488         1.414483         0.662025
 C         0.195816         2.790412         0.471619
 C        -0.226853         3.551557         1.697883
 C        -1.031556         2.638409         2.673323
 C        -0.800712         1.183720         2.244433
 C        -1.743783         3.435877         1.798559
 O        -2.539411         2.829841         0.726191
 C        -2.111650         1.618674         0.145216
 H         0.645506         0.371453         0.122344
 H         1.281196         2.602810         0.420083
 H        -0.171661         3.157191        -0.553681
 H         0.476647         4.243220         2.174848
 H        -0.961303         2.926041         3.728223
 H         0.123831         0.708245         2.716967
 H        -1.664160         0.709526         2.502654
 H        -2.310068         4.373401         2.125729
 H        -2.598697         0.755906         0.673451
 H        -2.390123         1.551284        -0.908846
