19
Iteration:  1070
 O        -0.243463         0.296418        -0.221864
 C        -0.638158         1.481555         0.667829
 C         0.361703         2.585552         0.832000
 C        -0.317299         3.499036         1.916216
 C        -1.199482         2.501968         2.749090
 C        -0.947606         1.061595         2.158549
 C        -1.747030         3.424212         1.680995
 O        -2.579584         3.029768         0.558974
 C        -1.957601         1.942264        -0.033090
 H         0.555749        -0.039634         0.252151
 H         1.332965         2.269265         1.184096
 H         0.664333         3.228661        -0.019360
 H         0.193979         4.367034         2.395857
 H        -1.537938         2.592328         3.856496
 H        -0.239628         0.415460         2.643494
 H        -1.932769         0.554045         2.377057
 H        -2.369265         4.278223         2.048384
 H        -2.606956         1.002548         0.133343
 H        -1.782260         2.219843        -1.142377
