19
Iteration:  2311charge 0 multiplicity 1
 O        -0.165334         0.290365        -0.027321
 C        -0.741912         1.381947         0.676160
 C         0.268662         2.638049         0.671248
 C        -0.339303         3.468262         1.837949
 C        -1.119045         2.510881         2.728483
 C        -0.919604         1.046097         2.111734
 C        -1.850507         3.495639         1.821774
 O        -2.415152         3.108216         0.561832
 C        -1.938711         1.868432        -0.004948
 H        -0.902457        -0.287487        -0.267863
 H         1.311688         2.336664         0.585950
 H        -0.092965         3.198675        -0.258469
 H         0.200225         4.324253         2.266665
 H        -0.977219         2.643488         3.833216
 H         0.083278         0.599624         2.390411
 H        -1.795076         0.409374         2.300745
 H        -2.476017         4.285586         2.281712
 H        -2.883123         1.238108         0.044496
 H        -1.717371         2.025536        -1.041733
