19
Iteration:  4239charge 0 multiplicity 1
 O        -0.235073         0.259761        -0.135575
 C        -0.575887         1.432199         0.636161
 C         0.166876         2.685348         0.455554
 C        -0.343711         3.607370         1.605567
 C        -0.959112         2.643058         2.683009
 C        -0.585631         1.243594         2.125127
 C        -1.857469         3.462135         1.814565
 O        -2.717161         2.925217         0.832697
 C        -2.090990         1.632981         0.249232
 H        -0.359882        -0.511477         0.436239
 H         1.262856         2.504563         0.506022
 H         0.058504         3.169741        -0.602253
 H         0.300091         4.461056         1.939027
 H        -1.110673         2.763571         3.757519
 H         0.463953         0.890998         2.368523
 H        -1.298296         0.546254         2.435744
 H        -2.492272         4.323982         2.262225
 H        -2.675699         0.829686         0.614679
 H        -2.197578         1.642474        -0.908465
