19
Iteration:  2944
 O        -0.211829         0.259447        -0.113712
 C        -0.667951         1.401712         0.650230
 C         0.196929         2.619361         0.679335
 C        -0.339364         3.498396         1.797245
 C        -1.121699         2.497838         2.696936
 C        -0.622517         1.088175         2.089706
 C        -1.818903         3.439647         1.779628
 O        -2.484268         3.146933         0.482449
 C        -2.205464         1.802611         0.280626
 H         0.105132         0.565183        -1.003938
 H         1.265072         2.411263         1.108230
 H         0.186449         3.235341        -0.133364
 H         0.233868         4.324215         2.083714
 H        -1.428485         2.657622         3.719906
 H         0.391754         0.918196         2.472634
 H        -1.231713         0.325725         2.529120
 H        -2.234812         4.283483         2.211453
 H        -2.919828         1.275192         0.918029
 H        -2.513599         1.387433        -0.703884
