19
Iteration:  4241charge 0 multiplicity 1
 O        -0.245169         0.251960        -0.145625
 C        -0.590931         1.436649         0.641487
 C         0.144557         2.700173         0.463849
 C        -0.357847         3.611829         1.605708
 C        -0.939144         2.638425         2.671229
 C        -0.581004         1.233980         2.155944
 C        -1.857732         3.461914         1.811207
 O        -2.698653         2.916928         0.828447
 C        -2.081142         1.660343         0.227282
 H        -0.284113        -0.512018         0.483112
 H         1.244521         2.537503         0.554547
 H         0.035024         3.157641        -0.618242
 H         0.212632         4.383787         1.959977
 H        -1.037843         2.798503         3.743842
 H         0.470184         0.828081         2.370845
 H        -1.289287         0.546994         2.523763
 H        -2.441265         4.273433         2.186031
 H        -2.704987         0.795111         0.617784
 H        -2.180983         1.630743        -0.874661
