19
Iteration:  2174
 O         0.035007         0.327000        -0.006845
 C        -0.741201         1.397131         0.629355
 C         0.269640         2.532408         0.733853
 C        -0.256678         3.363763         1.805944
 C        -1.026342         2.514309         2.753902
 C        -1.237247         1.101482         2.094287
 C        -1.768732         3.551568         1.752092
 O        -2.617213         3.014696         0.706156
 C        -1.918638         2.028385        -0.134263
 H        -0.566034        -0.454324        -0.115002
 H         1.268261         1.998538         0.914549
 H         0.335747         2.884069        -0.280641
 H         0.470338         4.194181         2.168218
 H        -1.032841         2.790407         3.847974
 H        -0.515882         0.582823         2.712805
 H        -2.281992         0.719225         2.041471
 H        -2.231006         4.429275         2.239251
 H        -2.676162         1.241930        -0.357842
 H        -1.530072         2.340468        -1.182178
