19
Iteration:  2076
 O        -0.178091         0.207963        -0.143244
 C        -0.663680         1.374725         0.674082
 C         0.260756         2.649431         0.695517
 C        -0.268980         3.401561         1.952697
 C        -1.122278         2.515928         2.716560
 C        -1.172866         1.082156         2.175260
 C        -1.865702         3.534690         1.793533
 O        -2.361638         3.125542         0.503767
 C        -1.956925         1.894415        -0.028064
 H         0.811393         0.279251        -0.144937
 H         1.377948         2.357035         0.835927
 H         0.028664         3.401691        -0.080824
 H         0.281401         4.064225         2.633467
 H        -1.246018         2.639755         3.800016
 H        -0.473151         0.387944         2.709096
 H        -2.198355         0.617469         2.241812
 H        -2.290868         4.337576         2.272616
 H        -2.767887         1.129463         0.023187
 H        -1.640563         2.072866        -1.028126
