19
Iteration:   705
 O        -0.268458         0.312171        -0.255727
 C        -0.667044         1.330355         0.690682
 C         0.297546         2.723680         0.706014
 C        -0.313965         3.416391         1.954697
 C        -1.259845         2.462420         2.749068
 C        -1.056595         1.053344         2.247358
 C        -1.809477         3.486187         1.784274
 O        -2.383461         3.132880         0.537563
 C        -1.855615         1.876969        -0.024533
 H         0.401260        -0.280116         0.037982
 H         1.385666         2.367129         0.793702
 H         0.184187         3.234499        -0.227079
 H         0.027398         4.314562         2.376778
 H        -1.322516         2.674280         3.828803
 H        -0.181475         0.593932         2.844156
 H        -1.795865         0.306220         2.398557
 H        -2.269019         4.512279         1.995105
 H        -2.574975         1.002550        -0.032231
 H        -1.676975         2.025358        -1.029478
