19
Iteration:   456
 O        -0.185820         0.312798        -0.196156
 C        -0.663947         1.402145         0.666355
 C         0.266178         2.630629         0.740129
 C        -0.292997         3.447136         1.946344
 C        -1.129651         2.484014         2.803123
 C        -1.083197         1.080109         2.184100
 C        -1.809626         3.415542         1.795604
 O        -2.388797         3.135986         0.455061
 C        -1.992227         1.920289        -0.043659
 H         0.405250        -0.294031         0.305636
 H         1.280471         2.325885         0.998159
 H         0.359155         3.323085        -0.134528
 H         0.262029         4.139923         2.448251
 H        -1.464188         2.515489         3.860599
 H        -0.394826         0.470852         2.747753
 H        -2.173002         0.639844         2.124009
 H        -2.379271         4.206533         2.279070
 H        -2.660800         1.080812         0.017238
 H        -1.801903         1.919387        -1.110444
