19
Iteration:  2453charge 0 multiplicity 1
 O        -0.238625         0.246576        -0.073675
 C        -0.583758         1.454994         0.582358
 C         0.417952         2.549272         0.755976
 C        -0.319072         3.465009         1.775716
 C        -1.095666         2.619399         2.672292
 C        -0.862374         1.177100         2.074036
 C        -1.911897         3.498605         1.787959
 O        -2.596634         3.009680         0.673777
 C        -2.063624         1.825372         0.089769
 H        -0.072472         0.378847        -1.016811
 H         1.080847         1.980763         1.362433
 H         0.866293         2.967366        -0.209128
 H         0.339124         4.233755         2.311624
 H        -1.009365         2.774624         3.783652
 H        -0.000873         0.685887         2.518055
 H        -1.769685         0.647055         2.190256
 H        -2.401902         4.419806         2.054946
 H        -2.751148         1.016925         0.389503
 H        -2.130892         1.777798        -1.047752
