19
Iteration:  4445
 O        -0.223791         0.317628        -0.222316
 C        -0.668826         1.369138         0.695425
 C         0.161377         2.660214         0.481977
 C        -0.315803         3.564328         1.658513
 C        -1.016040         2.596949         2.714642
 C        -0.758504         1.229933         2.242556
 C        -1.797538         3.450658         1.762399
 O        -2.553737         2.886808         0.809433
 C        -2.061883         1.761785         0.164127
 H         0.058619        -0.363832         0.421987
 H         1.236865         2.484937         0.392776
 H        -0.107442         3.005642        -0.495181
 H         0.111515         4.472246         1.899280
 H        -1.046650         2.900921         3.770706
 H         0.177191         0.966444         2.791856
 H        -1.612888         0.556368         2.528037
 H        -2.319002         4.303571         2.036508
 H        -2.835015         0.904552         0.279886
 H        -1.967581         1.959116        -0.862914
