19
Iteration:   873
 O        -0.229435         0.381421        -0.121721
 C        -0.624309         1.502698         0.604296
 C         0.372000         2.606694         0.770849
 C        -0.327853         3.369497         1.830017
 C        -1.163734         2.509614         2.772557
 C        -1.110424         1.081366         2.209217
 C        -1.827460         3.501620         1.815149
 O        -2.473609         2.967668         0.598090
 C        -1.884304         1.909503        -0.147698
 H         0.579220         0.018906         0.203704
 H         1.317445         2.174506         1.141679
 H         0.330303         3.165164        -0.203296
 H         0.158152         4.287544         2.319941
 H        -1.156607         2.464926         3.826970
 H        -0.464328         0.393333         2.763584
 H        -2.207037         0.703649         2.058466
 H        -2.337813         4.295572         2.116091
 H        -2.573973         1.070452        -0.113950
 H        -1.834777         2.131182        -1.197968
