19
Iteration:  1420charge 0 multiplicity 1
 O        -0.268102         0.399276        -0.220364
 C        -0.726200         1.385200         0.678259
 C         0.321773         2.539171         0.918476
 C        -0.366222         3.388034         1.835461
 C        -1.182975         2.533128         2.700125
 C        -0.910753         1.044099         2.205548
 C        -1.819277         3.464449         1.726436
 O        -2.512234         3.074959         0.575038
 C        -1.898857         1.929362        -0.084134
 H         0.522533         0.003171         0.113505
 H         1.268819         2.175536         1.382916
 H         0.716516         2.986228        -0.041280
 H         0.324011         4.189486         2.165040
 H        -1.296447         2.897846         3.816385
 H         0.104717         0.770608         2.567122
 H        -1.650368         0.360831         2.542433
 H        -2.390812         4.380416         2.094328
 H        -2.629354         1.061699        -0.110070
 H        -1.736400         2.246915        -1.182301
