19
Iteration:  1725charge 0 multiplicity 1
 O        -0.176189         0.339506        -0.153176
 C        -0.653596         1.362443         0.639363
 C         0.342041         2.582100         0.752505
 C        -0.265006         3.448282         1.775532
 C        -1.175957         2.526614         2.772508
 C        -1.307550         1.145939         2.096461
 C        -1.768250         3.467640         1.817484
 O        -2.458265         2.949118         0.731330
 C        -1.839176         1.986465        -0.073271
 H         0.665340        -0.080872         0.155646
 H         1.400577         2.231094         1.046661
 H         0.485405         3.037197        -0.270960
 H         0.190603         4.406207         2.083604
 H        -1.506207         2.534175         3.790302
 H        -0.978303         0.274271         2.621356
 H        -2.327714         0.974578         1.908559
 H        -2.070576         4.389281         2.103071
 H        -2.523249         1.143088        -0.274957
 H        -1.405638         2.297328        -0.984260
