19
Iteration:  1741
 O        -0.291576         0.289316        -0.181406
 C        -0.608786         1.408055         0.716213
 C         0.414372         2.573859         0.828690
 C        -0.295366         3.450247         1.870330
 C        -1.207716         2.492863         2.676582
 C        -1.175264         1.079626         2.092618
 C        -1.773509         3.559719         1.729288
 O        -2.533477         3.015468         0.644664
 C        -1.807275         1.947774        -0.046854
 H         0.638282         0.024102         0.056616
 H         1.427907         2.246356         1.192472
 H         0.348689         3.004201        -0.169596
 H         0.292973         4.207774         2.383637
 H        -1.003831         2.674239         3.755558
 H        -0.486438         0.436507         2.753910
 H        -2.184669         0.520464         2.042269
 H        -2.461006         4.347749         2.276667
 H        -2.519141         1.121158        -0.247522
 H        -1.646526         2.454755        -1.069410
