19
Iteration:  1214
 O        -0.275861         0.311382        -0.120272
 C        -0.662320         1.456137         0.595266
 C         0.433004         2.640912         0.820365
 C        -0.222900         3.552236         1.862895
 C        -1.227819         2.483701         2.700867
 C        -1.099865         1.125538         2.088374
 C        -1.777872         3.496766         1.795394
 O        -2.526555         2.882686         0.696756
 C        -1.928686         1.903983        -0.115546
 H         0.656488         0.154752         0.196666
 H         1.281257         2.154099         1.287377
 H         0.848248         3.120374        -0.082684
 H         0.228798         4.409570         2.047668
 H        -1.369908         2.789185         3.683915
 H        -0.268875         0.508857         2.420767
 H        -1.991422         0.336894         2.141399
 H        -2.448601         4.179649         2.270771
 H        -2.710931         1.097149        -0.216877
 H        -1.785924         2.290995        -1.150644
