19
Iteration:  1386charge 0 multiplicity 1
 O        -0.215752         0.303453        -0.181590
 C        -0.595478         1.396439         0.667806
 C         0.302729         2.680445         0.759042
 C        -0.298067         3.407966         1.879282
 C        -1.194094         2.510619         2.695017
 C        -1.092009         1.034379         2.076293
 C        -1.844199         3.514565         1.766390
 O        -2.408510         3.104795         0.583955
 C        -1.930448         1.852058         0.036295
 H         0.407538        -0.198841         0.353767
 H         1.357454         2.502363         1.004876
 H         0.185920         3.349153        -0.103194
 H         0.160615         4.153748         2.387890
 H        -1.315964         2.670084         3.775257
 H        -0.317964         0.473450         2.670082
 H        -1.997801         0.514482         2.173035
 H        -2.381132         4.331606         2.293405
 H        -2.646630         1.051904         0.350572
 H        -1.873359         1.925376        -1.122463
