19
Iteration:  4429charge 0 multiplicity 1
 O        -0.110091         0.409760        -0.189530
 C        -0.707098         1.378843         0.695324
 C         0.084329         2.613760         0.505477
 C        -0.268290         3.501144         1.600708
 C        -0.917519         2.725592         2.754146
 C        -0.800589         1.136799         2.307149
 C        -1.801858         3.538566         1.793561
 O        -2.652650         2.871889         0.767683
 C        -2.049697         1.679580         0.121308
 H        -0.533132        -0.490714        -0.194654
 H         1.200366         2.348895         0.538418
 H        -0.073573         3.218695        -0.468513
 H         0.422762         4.443449         1.776804
 H        -0.929222         2.955433         3.834245
 H         0.099786         0.599056         2.571860
 H        -1.684343         0.528848         2.612013
 H        -2.341969         4.384623         2.380871
 H        -2.679963         0.817234         0.187327
 H        -1.978037         1.858531        -1.024668
