19
Iteration:   563charge 0 multiplicity 1
 O        -0.140279         0.266054        -0.065400
 C        -0.666614         1.474732         0.666123
 C         0.378439         2.531397         0.706333
 C        -0.287538         3.346163         1.848464
 C        -1.178363         2.486398         2.752876
 C        -1.121648         1.117859         2.057135
 C        -1.783834         3.567499         1.747153
 O        -2.666958         3.038636         0.672639
 C        -1.864035         1.994328        -0.111563
 H         0.725217         0.102913         0.305434
 H         1.279952         2.146465         1.258426
 H         0.666063         3.131698        -0.147172
 H         0.236647         3.955487         2.395422
 H        -0.905599         2.494067         3.812588
 H        -0.505367         0.343385         2.493659
 H        -2.079512         0.638747         2.083521
 H        -2.260635         4.413084         2.189032
 H        -2.542088         1.108551        -0.314475
 H        -1.656524         2.630128        -0.999943
