19
Iteration:  1890
 O        -0.444641         0.217067        -0.132985
 C        -0.588039         1.485851         0.663819
 C         0.401283         2.575278         0.822679
 C        -0.287021         3.443797         1.972270
 C        -1.223217         2.521143         2.684685
 C        -1.025569         1.148779         2.115929
 C        -1.848064         3.468214         1.784581
 O        -2.501930         3.023338         0.595974
 C        -1.748333         1.932698        -0.135170
 H         0.507849        -0.034904         0.016590
 H         1.350647         2.231121         1.072897
 H         0.513095         3.235504        -0.064164
 H         0.228042         4.347604         2.287606
 H        -1.400111         2.474052         3.778106
 H        -0.062818         0.753843         2.501903
 H        -1.761100         0.346273         2.247412
 H        -2.664926         4.335236         2.042220
 H        -2.522422         1.142232        -0.402040
 H        -1.456814         2.470178        -1.001230
