19
Iteration:  1236
 O        -0.217999         0.211471        -0.068276
 C        -0.611538         1.440882         0.658356
 C         0.352959         2.624799         0.747616
 C        -0.333732         3.426680         1.876431
 C        -1.085014         2.467984         2.771643
 C        -1.094962         1.220161         2.008797
 C        -1.831356         3.464862         1.801501
 O        -2.603479         2.946941         0.668068
 C        -1.855598         2.021707        -0.136389
 H         0.655955        -0.007117         0.270340
 H         1.399420         2.426249         0.925763
 H         0.327839         3.260961        -0.163299
 H         0.124395         4.223059         2.311294
 H        -0.920708         2.610299         3.819592
 H        -0.536057         0.418353         2.493752
 H        -2.174121         0.717935         2.088583
 H        -2.243244         4.406607         2.057142
 H        -2.528022         1.132384        -0.174024
 H        -1.688068         2.325808        -1.166480
