19
Iteration:  3956
 O        -0.041746         0.311356        -0.048972
 C        -0.692031         1.306255         0.651955
 C         0.120108         2.669952         0.428936
 C        -0.409847         3.529638         1.471500
 C        -0.863111         2.631875         2.636035
 C        -0.618690         1.175603         2.206075
 C        -1.816208         3.502351         1.856639
 O        -2.774035         2.825711         0.964972
 C        -2.212295         1.860657         0.067955
 H         0.202577        -0.389409         0.546930
 H         1.231351         2.685077         0.440718
 H         0.005773         2.968381        -0.613083
 H         0.093314         4.478728         1.831536
 H        -0.441554         2.858230         3.590292
 H         0.424923         1.023276         2.405826
 H        -1.409612         0.467855         2.662099
 H        -2.276003         4.337005         2.306103
 H        -2.900679         1.015053         0.137946
 H        -2.211901         2.298849        -0.992990
