19
Iteration:   801charge 0 multiplicity 1
 O        -0.292150         0.295304        -0.096020
 C        -0.631123         1.458683         0.657606
 C         0.348894         2.640870         0.793951
 C        -0.262294         3.529080         1.938213
 C        -1.137521         2.489238         2.697934
 C        -1.106212         1.066227         2.096409
 C        -1.782204         3.430065         1.734844
 O        -2.512168         2.939544         0.678007
 C        -1.863454         1.971106        -0.164035
 H         0.569346        -0.110900         0.034372
 H         1.317603         2.415963         1.201784
 H         0.400955         3.172118        -0.169318
 H         0.143626         4.434304         2.422873
 H        -1.389944         2.644320         3.784921
 H        -0.491643         0.306356         2.600268
 H        -2.121723         0.744259         2.056297
 H        -2.467349         4.286431         2.085569
 H        -2.594644         1.137450        -0.345858
 H        -1.523040         2.245755        -1.246979
