19
Iteration:  3346
 O        -0.096322         0.356849        -0.128480
 C        -0.715284         1.383980         0.559393
 C         0.166494         2.717682         0.492650
 C        -0.282647         3.536068         1.724295
 C        -1.005819         2.543613         2.656026
 C        -0.801139         1.123129         2.184228
 C        -1.779295         3.489575         1.818463
 O        -2.603025         3.007942         0.710368
 C        -2.193921         1.668018         0.217292
 H         0.633840        -0.056304         0.324756
 H         1.271890         2.379545         0.566967
 H        -0.083102         3.262379        -0.501390
 H         0.288970         4.344968         2.230241
 H        -0.989656         2.781838         3.679272
 H         0.135899         0.783514         2.590573
 H        -1.493927         0.418230         2.559667
 H        -2.313642         4.164728         2.444540
 H        -2.984882         0.984557         0.632722
 H        -2.170994         1.618072        -0.879545
