19
Iteration:  4336charge 0 multiplicity 1
 O        -0.158750         0.370678        -0.145064
 C        -0.734860         1.368618         0.691245
 C         0.227090         2.652548         0.520175
 C        -0.382287         3.564208         1.558480
 C        -0.820339         2.689293         2.680235
 C        -0.705052         1.228988         2.190444
 C        -1.868978         3.438717         1.839652
 O        -2.666459         2.833149         0.841875
 C        -2.103584         1.696360         0.141826
 H        -0.734471        -0.383116         0.058532
 H         1.254578         2.409144         0.749135
 H         0.172051         2.971213        -0.484804
 H         0.105370         4.513110         1.757169
 H        -0.661827         3.003514         3.690319
 H         0.238261         0.740492         2.497331
 H        -1.557228         0.645165         2.582985
 H        -2.333347         4.378387         2.168778
 H        -2.831265         0.852808         0.112881
 H        -2.024338         2.000679        -0.947796
