19
Iteration:  1046
 O        -0.267301         0.305394        -0.082768
 C        -0.592512         1.468515         0.655836
 C         0.402259         2.612218         0.760915
 C        -0.346673         3.389057         1.886381
 C        -1.242200         2.469079         2.637650
 C        -1.037984         1.163792         2.022859
 C        -1.845674         3.494538         1.800461
 O        -2.479156         3.017308         0.627437
 C        -1.945818         1.876129        -0.024107
 H         0.653591        -0.018283         0.143376
 H         1.422132         2.385943         1.077859
 H         0.603203         3.291055        -0.072742
 H         0.253726         4.289043         2.384265
 H        -1.129085         2.468639         3.710503
 H        -0.231563         0.783839         2.685009
 H        -1.792973         0.422932         2.130362
 H        -2.428704         4.245157         2.172358
 H        -2.692150         1.049907        -0.058859
 H        -1.651843         2.297154        -0.977965
