19
Iteration:  1425
 O        -0.261582         0.384514        -0.172517
 C        -0.737962         1.391945         0.645039
 C         0.357453         2.547245         0.925888
 C        -0.359042         3.415268         1.862475
 C        -1.160946         2.497192         2.657065
 C        -0.913282         1.063328         2.184872
 C        -1.863987         3.473427         1.729933
 O        -2.539820         3.060754         0.578415
 C        -1.910079         1.965671        -0.069334
 H         0.619232         0.005461         0.109785
 H         1.233688         2.115604         1.467694
 H         0.610418         2.842036        -0.099413
 H         0.367460         4.228731         2.167811
 H        -1.203366         2.787414         3.654686
 H         0.069368         0.660117         2.452430
 H        -1.630934         0.204454         2.546624
 H        -2.161464         4.465740         1.942532
 H        -2.578561         1.128217        -0.130855
 H        -1.694678         2.253103        -1.049231
