19
Iteration:   237
 O        -0.167057         0.292709        -0.120963
 C        -0.665664         1.389594         0.650745
 C         0.323629         2.539290         0.846453
 C        -0.269168         3.462105         1.874725
 C        -1.132382         2.470627         2.636789
 C        -1.012803         1.007410         2.129186
 C        -1.878876         3.485528         1.736363
 O        -2.514956         3.214964         0.570133
 C        -2.015627         1.934304        -0.040001
 H         0.665425        -0.050587         0.179856
 H         1.234879         2.144381         1.283604
 H         0.734904         3.031031        -0.096638
 H         0.241228         4.296717         2.278215
 H        -1.278858         2.654803         3.712057
 H        -0.144860         0.572231         2.534364
 H        -1.855095         0.300063         2.343692
 H        -2.530606         4.178872         2.281139
 H        -2.750663         1.145665         0.117532
 H        -1.829027         2.204280        -1.047032
