19
Iteration:  4555
 O        -0.125384         0.338273        -0.079257
 C        -0.733411         1.444606         0.579647
 C         0.244542         2.603297         0.584580
 C        -0.331330         3.528807         1.623994
 C        -0.902032         2.568343         2.700686
 C        -0.812611         1.195144         2.102791
 C        -1.821533         3.471539         1.782170
 O        -2.645376         2.940159         0.765981
 C        -2.150595         1.772467         0.140105
 H        -0.002465        -0.357309         0.607417
 H         1.224735         2.146914         1.033590
 H         0.385684         3.092092        -0.382833
 H         0.170963         4.452270         1.899346
 H        -0.615678         2.883537         3.751303
 H         0.109973         0.666529         2.501636
 H        -1.670382         0.546474         2.423028
 H        -2.474311         4.267889         2.299863
 H        -2.830806         0.896202         0.395878
 H        -2.116658         2.002315        -0.896656
