19
Iteration:  3727
 O        -0.098200         0.209737         0.089038
 C        -0.700373         1.497302         0.567193
 C         0.177786         2.781473         0.335353
 C        -0.385097         3.557240         1.566255
 C        -0.858690         2.624876         2.688953
 C        -0.752734         1.247157         2.097248
 C        -1.819708         3.451849         1.852620
 O        -2.678989         2.726558         1.000023
 C        -2.136859         1.773626         0.143993
 H        -0.090047         0.206621        -0.877867
 H         1.319027         2.754460         0.339499
 H        -0.005278         3.225974        -0.652032
 H         0.047865         4.530252         1.762394
 H        -0.754704         2.784556         3.800474
 H         0.135627         0.662596         2.404137
 H        -1.631868         0.532727         2.264017
 H        -2.288799         4.349194         2.110227
 H        -2.802632         0.828988         0.178324
 H        -2.018974         1.989879        -0.956754
