19
Iteration:   951charge 0 multiplicity 1
 O        -0.311579         0.319444        -0.153540
 C        -0.628741         1.415614         0.634966
 C         0.358374         2.615289         0.850007
 C        -0.326670         3.483076         1.856696
 C        -1.182881         2.499443         2.719479
 C        -0.954156         1.044680         2.139534
 C        -1.873234         3.489235         1.752457
 O        -2.506569         3.060064         0.558039
 C        -1.864606         1.913929        -0.038316
 H         0.495619        -0.113319         0.146293
 H         1.324970         2.205158         1.227672
 H         0.638594         3.102947        -0.141985
 H         0.281530         4.341971         2.207118
 H        -1.458537         2.585728         3.824638
 H        -0.128397         0.522206         2.641669
 H        -1.831272         0.264065         2.205267
 H        -2.520550         4.144495         2.345211
 H        -2.557306         1.051574        -0.077878
 H        -1.729117         2.352593        -1.042132
