19
Iteration:  3160
 O        -0.222212         0.263512        -0.085325
 C        -0.633319         1.483520         0.619668
 C         0.177781         2.703156         0.571342
 C        -0.337271         3.503202         1.822749
 C        -1.051802         2.536559         2.721996
 C        -0.723661         1.166115         2.165450
 C        -1.826943         3.395444         1.805233
 O        -2.480895         3.036173         0.564627
 C        -2.114122         1.705690         0.166364
 H        -0.620162         0.502200        -0.936291
 H         1.184817         2.498028         0.664930
 H         0.179271         3.249285        -0.401487
 H         0.076486         4.501738         2.266071
 H        -1.201625         2.699440         3.859702
 H         0.220720         0.688941         2.617019
 H        -1.487050         0.412140         2.411298
 H        -2.327757         4.224150         2.335735
 H        -2.724025         0.972787         0.736428
 H        -2.165307         1.589467        -0.904196
