19
Iteration:  4269charge 0 multiplicity 1
 O        -0.293743         0.298895        -0.078772
 C        -0.700916         1.366940         0.720460
 C         0.081690         2.709631         0.416428
 C        -0.380428         3.633016         1.556297
 C        -0.786347         2.669237         2.726866
 C        -0.641146         1.212686         2.238238
 C        -1.829506         3.360198         1.892752
 O        -2.602210         2.909925         0.765640
 C        -2.115004         1.652618         0.095693
 H         0.699061         0.236218        -0.000459
 H         1.160724         2.544961         0.476305
 H        -0.175277         3.059368        -0.535067
 H         0.120783         4.698623         1.737287
 H        -0.751945         2.847793         3.810604
 H         0.274792         0.666152         2.426952
 H        -1.449191         0.535036         2.706276
 H        -2.550836         4.163548         2.351085
 H        -2.937403         0.906300         0.060159
 H        -1.834817         1.804103        -0.984832
