19
Iteration:  1431
 O        -0.248873         0.340141        -0.124593
 C        -0.688166         1.417625         0.654541
 C         0.393340         2.513803         0.881573
 C        -0.306386         3.477822         1.853812
 C        -1.156656         2.446628         2.646205
 C        -0.943116         1.075777         2.138502
 C        -1.896440         3.492743         1.722356
 O        -2.580150         3.043911         0.586157
 C        -1.945812         1.996943        -0.045311
 H         0.663419         0.117692         0.161943
 H         1.203724         2.012959         1.435667
 H         0.594476         2.877705        -0.159010
 H         0.161406         4.366989         2.381814
 H        -1.182028         2.527291         3.844151
 H         0.034895         0.617653         2.437399
 H        -1.622594         0.295377         2.363699
 H        -2.098630         4.559398         2.018194
 H        -2.711393         1.172443        -0.203893
 H        -1.505258         2.313561        -1.097456
