19
Iteration:  2734charge 0 multiplicity 1
 O        -0.156290         0.264851         0.006151
 C        -0.711507         1.329490         0.691726
 C         0.041301         2.757737         0.545114
 C        -0.276263         3.518594         1.803377
 C        -0.989373         2.557467         2.695304
 C        -0.778389         1.064188         2.187312
 C        -1.836803         3.470577         1.844319
 O        -2.440076         3.129363         0.500550
 C        -2.090362         1.726364         0.129039
 H        -0.609417         0.269508        -0.865083
 H         1.199405         2.497333         0.322318
 H        -0.316067         3.266705        -0.317524
 H         0.261164         4.292044         2.352295
 H        -0.888382         2.704961         3.739989
 H         0.210253         0.585757         2.454896
 H        -1.548071         0.320582         2.425183
 H        -2.478509         4.105927         2.490541
 H        -2.902587         0.938861         0.248825
 H        -1.913130         1.681415        -0.915848
