19
Iteration:  4212
 O        -0.065711         0.333123        -0.064407
 C        -0.668731         1.455947         0.618209
 C         0.197906         2.710440         0.450686
 C        -0.347674         3.514409         1.547919
 C        -0.926514         2.621335         2.648859
 C        -0.654858         1.193716         2.167695
 C        -1.813966         3.463160         1.730040
 O        -2.699934         2.892535         0.877801
 C        -2.239834         1.669674         0.277608
 H        -0.706325        -0.267844        -0.457220
 H         1.209293         2.369225         0.669369
 H         0.250928         3.154891        -0.482458
 H         0.186983         4.383793         2.016113
 H        -0.812673         2.960713         3.684704
 H         0.384702         0.966980         2.332213
 H        -1.478173         0.456411         2.592849
 H        -2.283840         4.359291         2.002736
 H        -2.747819         0.868146         0.878201
 H        -2.538335         1.653019        -0.745246
