19
Iteration:  3675
 O        -0.232173         0.357493        -0.211048
 C        -0.619175         1.461047         0.620360
 C         0.254405         2.641483         0.528213
 C        -0.371070         3.578195         1.551565
 C        -0.918087         2.675906         2.661300
 C        -0.701216         1.261758         2.173396
 C        -1.874455         3.402676         1.810679
 O        -2.739725         2.780830         0.932388
 C        -2.047014         1.725386         0.187720
 H        -0.180423        -0.441139         0.344426
 H         1.279527         2.448799         0.786929
 H         0.321302         3.138824        -0.439886
 H         0.130545         4.550516         1.553746
 H        -0.720808         2.921362         3.747304
 H         0.312867         0.869953         2.585775
 H        -1.595070         0.650808         2.305716
 H        -2.328267         4.191344         2.282905
 H        -2.536950         0.788963         0.548570
 H        -2.053894         1.768128        -0.861893
