19
Iteration:  3274
 O        -0.129375         0.269840        -0.007881
 C        -0.698501         1.448721         0.636107
 C         0.284805         2.645845         0.523938
 C        -0.374649         3.459565         1.591418
 C        -0.971645         2.580039         2.714595
 C        -0.806409         1.187654         2.155173
 C        -1.810537         3.506415         1.809299
 O        -2.719945         2.810057         0.896490
 C        -2.023776         1.943445        -0.000772
 H        -0.709346         0.048952        -0.745867
 H         1.189843         2.431030         1.049399
 H         0.397837         3.105347        -0.412722
 H         0.110114         4.366777         1.759122
 H        -0.776196         2.730538         3.742742
 H         0.106869         0.680935         2.542349
 H        -1.478275         0.344728         2.409946
 H        -2.327156         4.297465         2.294327
 H        -2.565538         1.028838        -0.237067
 H        -1.786272         2.479674        -0.970738
