19
Iteration:   154
 O        -0.237554         0.287670        -0.136833
 C        -0.663250         1.441836         0.597024
 C         0.408855         2.466289         0.829751
 C        -0.374560         3.479001         1.809161
 C        -1.264231         2.467104         2.668165
 C        -0.910045         1.113964         2.161911
 C        -1.850064         3.404731         1.750745
 O        -2.459872         3.164191         0.578455
 C        -1.986298         2.012989        -0.003382
 H         0.537496        -0.070598         0.414685
 H         1.335093         2.008836         1.436261
 H         0.622210         2.972640        -0.102219
 H         0.234387         4.126209         2.321887
 H        -1.509159         2.569239         3.780880
 H         0.075523         0.628366         2.576496
 H        -1.701419         0.430915         2.313563
 H        -2.460140         4.241606         2.271260
 H        -2.664529         1.191680         0.084653
 H        -1.872122         2.107949        -1.142013
