19
Iteration:  3766
 O        -0.261210         0.311199        -0.227748
 C        -0.651620         1.350790         0.686677
 C         0.178711         2.655102         0.475003
 C        -0.386521         3.600389         1.528614
 C        -0.849437         2.726938         2.745620
 C        -0.577382         1.247660         2.241649
 C        -1.884852         3.424618         1.781608
 O        -2.722399         2.782734         0.878697
 C        -2.130279         1.684357         0.221140
 H         0.725911         0.357796        -0.153070
 H         1.217752         2.308702         0.627749
 H         0.237585         3.193072        -0.527083
 H        -0.046089         4.656009         1.591047
 H        -0.684033         2.962578         3.783988
 H         0.426119         0.926125         2.558425
 H        -1.365890         0.639404         2.637688
 H        -2.439985         4.383637         2.182822
 H        -2.798052         0.864050         0.348099
 H        -2.163453         1.975233        -0.831314
