19
Iteration:  2639charge 0 multiplicity 1
 O        -0.115452         0.193032        -0.007118
 C        -0.705577         1.374678         0.589612
 C         0.218339         2.614778         0.555715
 C        -0.327361         3.494020         1.758723
 C        -0.940814         2.606987         2.709845
 C        -0.864881         1.163463         2.117406
 C        -1.865492         3.447118         1.812469
 O        -2.683109         2.933034         0.817160
 C        -1.963098         2.009581        -0.065725
 H        -0.429019        -0.614281         0.404874
 H         1.206055         2.346101         0.836941
 H         0.155377         3.162888        -0.442962
 H         0.298196         4.349980         1.932800
 H        -0.954707         3.000877         3.688924
 H         0.022713         0.590998         2.460621
 H        -1.790954         0.607779         2.334798
 H        -2.334535         4.287855         2.378261
 H        -2.670365         1.316150        -0.450550
 H        -1.572553         2.460675        -1.040485
