19
Iteration:  1172charge 0 multiplicity 1
 O        -0.159479         0.302306        -0.214708
 C        -0.660238         1.360842         0.714713
 C         0.349130         2.569417         0.766055
 C        -0.304974         3.512802         1.780155
 C        -1.171265         2.513258         2.728826
 C        -1.004005         0.992784         2.224987
 C        -1.873682         3.493139         1.795321
 O        -2.598638         3.079095         0.594986
 C        -1.883886         2.005781        -0.054729
 H         0.587513        -0.103064         0.217543
 H         1.333823         2.258447         1.138306
 H         0.347685         2.951164        -0.255292
 H         0.240802         4.246626         2.302365
 H        -1.213331         2.573604         3.777255
 H        -0.142096         0.610992         2.735837
 H        -1.917340         0.362499         2.386772
 H        -2.535373         4.167071         2.275115
 H        -2.659577         1.173615        -0.219002
 H        -1.561855         2.344232        -1.121209
