19
Iteration:  3159
 O        -0.208546         0.268425        -0.087325
 C        -0.629776         1.481581         0.634554
 C         0.169795         2.701464         0.564238
 C        -0.325888         3.505890         1.836089
 C        -1.055907         2.534913         2.710270
 C        -0.725186         1.163334         2.164561
 C        -1.825223         3.404489         1.807906
 O        -2.478144         3.033590         0.566692
 C        -2.125577         1.707392         0.159182
 H        -0.672593         0.508487        -0.901466
 H         1.149341         2.481491         0.662672
 H         0.153868         3.224863        -0.427874
 H         0.078846         4.475679         2.233807
 H        -1.189854         2.707135         3.828763
 H         0.190028         0.699640         2.632164
 H        -1.490844         0.391554         2.400387
 H        -2.326047         4.199635         2.333390
 H        -2.756911         0.978620         0.735123
 H        -2.160658         1.569990        -0.896393
