19
Iteration:  3630charge 0 multiplicity 1
 O        -0.227299         0.285118        -0.087981
 C        -0.690750         1.423413         0.667438
 C         0.090831         2.667102         0.444564
 C        -0.380729         3.569040         1.615818
 C        -0.918018         2.614051         2.710689
 C        -0.621303         1.212593         2.162566
 C        -1.849051         3.429334         1.863310
 O        -2.619873         2.906112         0.759054
 C        -2.122850         1.700566         0.224407
 H         0.663424         0.472016        -0.400362
 H         1.145415         2.398344         0.489139
 H         0.039722         3.054462        -0.561421
 H         0.142369         4.537679         1.722306
 H        -0.892322         2.688330         3.829568
 H         0.513160         0.980077         2.359884
 H        -1.405677         0.454529         2.476196
 H        -2.250705         4.349982         2.311578
 H        -2.667060         0.702711         0.374737
 H        -2.074299         1.962895        -0.803763
