19
Iteration:  3853charge 0 multiplicity 1
 O        -0.057438         0.329756        -0.056053
 C        -0.717664         1.400495         0.653881
 C         0.000775         2.723423         0.427631
 C        -0.346644         3.593729         1.528479
 C        -0.823196         2.639100         2.700695
 C        -0.603932         1.223103         2.184805
 C        -1.801897         3.443550         1.823253
 O        -2.721864         2.869957         0.878339
 C        -2.120015         1.667566         0.146506
 H        -0.664145        -0.444125        -0.095346
 H         1.014194         2.535741         0.308471
 H        -0.480101         3.078150        -0.504691
 H         0.188636         4.526594         1.722297
 H        -0.785127         2.707042         3.794012
 H         0.491087         0.871966         2.390846
 H        -1.277176         0.471627         2.567803
 H        -2.412712         4.306793         2.317333
 H        -2.724926         0.734529         0.476950
 H        -2.157931         1.785952        -0.916313
