19
Iteration:   387charge 0 multiplicity 1
 O        -0.282349         0.282282        -0.135716
 C        -0.660985         1.402777         0.654536
 C         0.413499         2.613178         0.900580
 C        -0.337094         3.458645         1.809712
 C        -1.183392         2.399350         2.720323
 C        -0.961180         1.054124         2.167316
 C        -1.822628         3.420265         1.708818
 O        -2.506837         3.132487         0.549062
 C        -1.980714         2.005599        -0.016606
 H         0.624963         0.101808         0.077149
 H         1.303020         2.172400         1.386656
 H         0.690265         2.990587        -0.075184
 H         0.258027         4.285978         2.274701
 H        -1.402354         2.582151         3.758201
 H        -0.041175         0.595020         2.581673
 H        -1.915023         0.457796         2.195690
 H        -2.224001         4.395624         2.077373
 H        -2.811295         1.352390        -0.310561
 H        -1.704745         2.242881        -1.126002
