19
Iteration:  4010charge 0 multiplicity 1
 O        -0.204828         0.315782        -0.209860
 C        -0.677248         1.389104         0.664173
 C         0.178564         2.725585         0.410030
 C        -0.263183         3.625701         1.576106
 C        -0.912113         2.712529         2.697738
 C        -0.663440         1.268704         2.298546
 C        -1.848760         3.450590         1.778213
 O        -2.727391         2.735322         0.902875
 C        -2.029187         1.651131         0.185031
 H        -0.999440        -0.232069        -0.109778
 H         1.182000         2.406054         0.380666
 H        -0.078059         3.251153        -0.530225
 H         0.249274         4.550316         1.978899
 H        -0.951127         3.053569         3.710308
 H         0.357198         0.783203         2.586308
 H        -1.382585         0.550345         2.765521
 H        -2.336814         4.290778         2.169299
 H        -2.696513         0.724466         0.271615
 H        -2.074768         1.977929        -0.832212
