19
Iteration:  2761charge 0 multiplicity 1
 O        -0.266512         0.187845         0.028031
 C        -0.638903         1.416302         0.608736
 C         0.177423         2.734674         0.557758
 C        -0.313823         3.510953         1.733091
 C        -1.029054         2.572790         2.735721
 C        -0.871702         1.208504         2.098537
 C        -1.754193         3.415357         1.810565
 O        -2.513532         2.958286         0.735929
 C        -2.035534         1.809516         0.046936
 H         0.198031         0.443432        -0.789528
 H         1.213776         2.622986         0.557948
 H         0.048357         3.269301        -0.464091
 H        -0.025937         4.506356         2.037081
 H        -0.921355         2.613844         3.840742
 H         0.032739         0.700750         2.480202
 H        -1.684545         0.475344         2.282795
 H        -2.306024         4.186027         2.369261
 H        -2.635526         0.886039         0.246388
 H        -2.081866         1.993228        -1.076191
