19
Iteration:  1412
 O        -0.269067         0.393946        -0.273063
 C        -0.653022         1.392234         0.707015
 C         0.322994         2.493489         0.828644
 C        -0.333912         3.436850         1.827701
 C        -1.222702         2.526795         2.788077
 C        -0.923015         1.088306         2.232937
 C        -1.815222         3.484490         1.721868
 O        -2.478233         3.072525         0.555798
 C        -1.940704         1.893119        -0.084860
 H         0.473306        -0.058754         0.124421
 H         1.267553         2.091965         1.306118
 H         0.611272         3.169303        -0.028341
 H         0.150413         4.375109         2.354015
 H        -1.418124         2.702495         3.925089
 H        -0.022017         0.759480         2.736388
 H        -1.813112         0.376507         2.440018
 H        -2.436978         4.140012         2.317032
 H        -2.723052         1.149098        -0.113218
 H        -1.582151         2.111380        -1.062602
