19
Iteration:  4312
 O        -0.024563         0.262215        -0.027682
 C        -0.661393         1.409932         0.606574
 C         0.285146         2.687849         0.428795
 C        -0.320851         3.595326         1.530534
 C        -0.995831         2.599839         2.648498
 C        -0.751667         1.208031         2.108521
 C        -1.775793         3.520874         1.788339
 O        -2.777221         2.881425         0.957548
 C        -2.162771         1.697496         0.233112
 H        -0.649988         0.140449        -0.791546
 H         1.327499         2.335405         0.582497
 H         0.264770         2.987203        -0.575310
 H         0.286546         4.526837         1.970010
 H        -1.051352         2.817122         3.710293
 H         0.117688         0.802186         2.600513
 H        -1.676685         0.480537         2.282644
 H        -2.198667         4.554592         2.226427
 H        -2.664999         0.667591         0.550123
 H        -2.556642         1.814213        -0.761584
