19
Iteration:  2042
 O        -0.111457         0.349586        -0.042774
 C        -0.761351         1.444560         0.635321
 C         0.314024         2.517682         0.767212
 C        -0.272873         3.340909         1.841372
 C        -1.240182         2.449063         2.725606
 C        -1.081403         1.080980         2.101915
 C        -1.787211         3.538030         1.776734
 O        -2.392109         3.140092         0.524667
 C        -2.050561         1.894956         0.028143
 H         0.849532         0.543845        -0.122642
 H         1.309968         1.927428         0.936294
 H         0.541702         3.052632        -0.195362
 H         0.247523         4.073767         2.377249
 H        -1.436159         2.569369         3.754729
 H        -0.173192         0.590760         2.496957
 H        -1.997425         0.461159         2.285593
 H        -2.144482         4.529179         2.010145
 H        -2.883954         1.167435         0.065359
 H        -1.933946         2.117750        -1.041960
