19
Iteration:  2701
 O        -0.062866         0.318162        -0.159741
 C        -0.668449         1.383800         0.610827
 C         0.363513         2.621144         0.595919
 C        -0.299302         3.447229         1.742645
 C        -1.196717         2.580544         2.754368
 C        -0.781146         1.136382         2.130553
 C        -1.806463         3.507586         1.783075
 O        -2.558315         3.113661         0.578586
 C        -2.233959         1.705357         0.280653
 H        -0.741991        -0.105321        -0.684222
 H         1.355351         2.127467         1.016088
 H         0.488592         3.192113        -0.274373
 H         0.132120         4.321915         2.188280
 H        -1.113857         2.881029         3.773917
 H         0.229752         0.870554         2.540811
 H        -1.492574         0.316958         2.315560
 H        -2.304396         4.335184         2.172045
 H        -2.825698         0.973332         0.983477
 H        -2.543638         1.657833        -0.723433
