19
Iteration:  4019
 O        -0.182462         0.321619        -0.150064
 C        -0.628970         1.352817         0.695546
 C         0.124498         2.659866         0.439795
 C        -0.330220         3.586304         1.595337
 C        -0.900739         2.714733         2.661584
 C        -0.566539         1.259684         2.238779
 C        -1.846667         3.429569         1.811983
 O        -2.724709         2.774354         0.887968
 C        -2.112895         1.759754         0.158799
 H        -0.829657        -0.340885        -0.451855
 H         1.206075         2.473026         0.468833
 H        -0.217004         3.013762        -0.598835
 H         0.140942         4.584185         1.749293
 H        -0.858667         2.964628         3.724266
 H         0.423970         0.920965         2.856920
 H        -1.413150         0.702747         2.553062
 H        -2.268119         4.297935         2.116960
 H        -2.777351         0.796201         0.238680
 H        -1.985343         1.953282        -0.883980
