19
Iteration:  4554charge 0 multiplicity 1
 O        -0.125528         0.345030        -0.084220
 C        -0.731444         1.442743         0.578060
 C         0.250982         2.605272         0.568314
 C        -0.332601         3.532993         1.634122
 C        -0.901633         2.561045         2.705217
 C        -0.815783         1.195322         2.114556
 C        -1.826881         3.481898         1.782479
 O        -2.637981         2.929990         0.762380
 C        -2.152806         1.769272         0.148726
 H        -0.030066        -0.361735         0.592913
 H         1.240038         2.129885         1.023947
 H         0.392130         3.097012        -0.390458
 H         0.156050         4.434299         1.905179
 H        -0.616692         2.912255         3.747746
 H         0.070330         0.654116         2.484707
 H        -1.704544         0.549916         2.452356
 H        -2.456061         4.278959         2.272020
 H        -2.833528         0.913379         0.398183
 H        -2.113609         1.991230        -0.926613
