19
Iteration:   870charge 0 multiplicity 1
 O        -0.228414         0.386018        -0.140770
 C        -0.630570         1.475067         0.645736
 C         0.348882         2.586296         0.770980
 C        -0.326998         3.390533         1.859060
 C        -1.153701         2.506120         2.762705
 C        -1.102999         1.106363         2.201073
 C        -1.828252         3.485712         1.803993
 O        -2.500345         2.985627         0.594406
 C        -1.862700         1.897298        -0.149500
 H         0.621557         0.041500         0.251017
 H         1.305483         2.123636         1.060112
 H         0.364842         3.063906        -0.192607
 H         0.215697         4.213242         2.314293
 H        -1.153565         2.542350         3.831712
 H        -0.422274         0.415629         2.749726
 H        -2.067493         0.662703         2.055752
 H        -2.367295         4.398351         2.161255
 H        -2.593442         1.018839        -0.187110
 H        -1.800883         2.267437        -1.240680
