19
Iteration:  3858charge 0 multiplicity 1
 O        -0.046754         0.364877        -0.076682
 C        -0.760973         1.348445         0.657653
 C        -0.006346         2.691977         0.402173
 C        -0.353772         3.581683         1.560162
 C        -0.847018         2.604981         2.723537
 C        -0.551773         1.220287         2.228251
 C        -1.793293         3.474501         1.781295
 O        -2.766042         2.849536         0.865851
 C        -2.110003         1.695969         0.190880
 H        -0.605386        -0.404462        -0.226911
 H         1.204526         2.600201         0.361223
 H        -0.309287         3.171557        -0.579214
 H         0.322479         4.447421         1.590289
 H        -0.726104         2.874392         3.807024
 H         0.454363         1.001697         2.386466
 H        -1.333159         0.485528         2.650245
 H        -2.255612         4.272190         2.185289
 H        -2.743261         0.894578         0.437322
 H        -2.158721         1.869163        -0.962537
