19
Iteration:  3380charge 0 multiplicity 1
 O        -0.052625         0.368394        -0.064001
 C        -0.739392         1.348660         0.658483
 C         0.054951         2.697790         0.422107
 C        -0.338305         3.549269         1.678132
 C        -0.969546         2.554191         2.706844
 C        -0.741049         1.150857         2.202309
 C        -1.828836         3.413792         1.866051
 O        -2.524475         3.048352         0.703542
 C        -2.120471         1.696268         0.160240
 H        -0.649098        -0.381905        -0.238107
 H         1.147170         2.494780         0.326230
 H        -0.170130         3.322122        -0.506318
 H         0.248527         4.332750         2.065999
 H        -0.872648         2.695165         3.741489
 H         0.222803         0.834609         2.513363
 H        -1.468878         0.426508         2.421077
 H        -2.433788         4.124860         2.390960
 H        -2.790924         0.879237         0.451194
 H        -2.032626         1.739263        -0.931568
