19
Iteration:  4071
 O        -0.101791         0.237224        -0.006555
 C        -0.651700         1.439607         0.611662
 C         0.136903         2.789433         0.396327
 C        -0.341955         3.533525         1.582788
 C        -0.865228         2.703575         2.718627
 C        -0.762794         1.246906         2.110602
 C        -1.771285         3.466668         1.786072
 O        -2.685729         2.779010         0.923515
 C        -2.142181         1.641466         0.221731
 H        -0.652367         0.066928        -0.782531
 H         1.227046         2.527365         0.237220
 H        -0.167175         3.375395        -0.487240
 H         0.101564         4.485185         1.732312
 H        -0.771570         2.971531         3.790943
 H         0.145772         0.818927         2.229845
 H        -1.626115         0.727079         2.499325
 H        -2.223426         4.339716         2.194355
 H        -2.612650         0.740957         0.481877
 H        -2.269623         1.881972        -0.891422
