19
Iteration:  4564charge 0 multiplicity 1
 O        -0.142091         0.271056        -0.048556
 C        -0.709828         1.425607         0.629229
 C         0.203383         2.608565         0.653652
 C        -0.333838         3.549076         1.587575
 C        -0.923416         2.626622         2.635662
 C        -0.750416         1.184519         2.064508
 C        -1.801747         3.405858         1.819470
 O        -2.706777         3.012789         0.806247
 C        -2.130261         1.797083         0.070406
 H         0.235132        -0.295909         0.666905
 H         1.302922         2.288880         0.998990
 H         0.387892         2.980543        -0.346547
 H         0.233123         4.398398         1.796679
 H        -0.877649         2.575137         3.769109
 H         0.211872         0.875268         2.371672
 H        -1.579393         0.392528         2.271726
 H        -2.259575         4.217739         2.425619
 H        -2.760409         0.905707         0.226586
 H        -2.198092         2.016300        -1.037477
