19
Iteration:   783charge 0 multiplicity 1
 O        -0.161088         0.283307        -0.195949
 C        -0.711329         1.370863         0.624085
 C         0.309149         2.642111         0.747908
 C        -0.285020         3.417166         1.866769
 C        -1.188674         2.491100         2.788298
 C        -1.178729         1.149741         2.117766
 C        -1.832371         3.567761         1.831814
 O        -2.473862         2.952702         0.659876
 C        -1.842175         1.918892        -0.111902
 H         0.585708         0.022480         0.358815
 H         1.316704         2.246195         1.042921
 H         0.273126         3.288890        -0.123724
 H         0.365081         4.132000         2.297644
 H        -1.127427         2.664630         3.884524
 H        -0.368015         0.603223         2.687532
 H        -2.142194         0.611315         2.103379
 H        -2.273540         4.592048         2.226719
 H        -2.497423         1.095751        -0.473774
 H        -1.459227         2.330368        -1.014659
