19
Iteration:   482
 O        -0.216302         0.319178        -0.117153
 C        -0.679588         1.413100         0.656697
 C         0.347029         2.513115         0.827851
 C        -0.338495         3.497940         1.784853
 C        -1.321292         2.452607         2.700032
 C        -0.951780         0.970179         2.091138
 C        -1.789117         3.529048         1.797748
 O        -2.464644         3.133817         0.569718
 C        -1.963307         1.994143        -0.043139
 H         0.426952        -0.181287         0.450591
 H         1.294223         2.084310         1.379985
 H         0.616550         3.085360        -0.103278
 H         0.372362         4.207965         2.485597
 H        -1.424397         2.482116         3.766641
 H         0.078358         0.854209         2.525316
 H        -1.615291         0.142302         2.180359
 H        -2.261723         4.425423         2.198237
 H        -2.638564         1.088034        -0.018088
 H        -1.834004         2.188480        -1.105079
