19
Iteration:  1317charge 0 multiplicity 1
 O        -0.319764         0.341398        -0.201220
 C        -0.598814         1.387260         0.722942
 C         0.361591         2.616121         0.842234
 C        -0.322820         3.510347         1.874526
 C        -1.191695         2.474900         2.646952
 C        -1.046598         1.033605         2.085469
 C        -1.821361         3.516322         1.736314
 O        -2.469463         3.053209         0.599768
 C        -1.884155         1.838784         0.034925
 H         0.579601         0.016015         0.069787
 H         1.393746         2.326314         1.108484
 H         0.439753         3.210846        -0.071219
 H         0.290931         4.447247         2.249733
 H        -1.426433         2.684839         3.681766
 H        -0.130961         0.693871         2.647912
 H        -1.948054         0.399916         2.171935
 H        -2.444568         4.314628         2.168437
 H        -2.642998         0.969952         0.127137
 H        -1.673963         2.154215        -1.063703
