19
Iteration:  3345
 O        -0.107277         0.352568        -0.128188
 C        -0.708495         1.389206         0.557838
 C         0.178252         2.720782         0.487017
 C        -0.282251         3.538300         1.722160
 C        -1.009555         2.538246         2.648918
 C        -0.802647         1.128512         2.175845
 C        -1.780315         3.491954         1.829385
 O        -2.604477         2.998165         0.705701
 C        -2.188357         1.668063         0.232114
 H         0.656663        -0.020216         0.316696
 H         1.286573         2.370437         0.591783
 H        -0.064061         3.243510        -0.509240
 H         0.294023         4.369384         2.232067
 H        -1.023687         2.795999         3.699494
 H         0.105560         0.774470         2.594334
 H        -1.496438         0.423161         2.574400
 H        -2.330833         4.154631         2.478640
 H        -2.985866         1.015966         0.613789
 H        -2.167984         1.622447        -0.885793
