19
Iteration:  1413
 O        -0.271254         0.396557        -0.269761
 C        -0.659962         1.391485         0.708263
 C         0.318994         2.496307         0.839712
 C        -0.336721         3.427057         1.822271
 C        -1.219638         2.532462         2.785821
 C        -0.917889         1.079282         2.228509
 C        -1.813674         3.484659         1.721481
 O        -2.481669         3.073705         0.559265
 C        -1.935109         1.895605        -0.090954
 H         0.490371        -0.050300         0.139785
 H         1.263424         2.112706         1.311265
 H         0.636078         3.160006         0.002616
 H         0.158864         4.349320         2.340548
 H        -1.401871         2.725253         3.873967
 H         0.001856         0.781687         2.717251
 H        -1.818438         0.373052         2.465282
 H        -2.434929         4.135059         2.293372
 H        -2.703627         1.146254        -0.112850
 H        -1.614237         2.123779        -1.064943
