19
Iteration:   301charge 0 multiplicity 1
 O        -0.194211         0.244495        -0.048363
 C        -0.619339         1.456234         0.582629
 C         0.377877         2.527445         0.745037
 C        -0.349484         3.447556         1.822213
 C        -1.129303         2.488130         2.752380
 C        -1.135984         1.092069         2.055080
 C        -1.810119         3.472391         1.801198
 O        -2.557521         3.019196         0.725496
 C        -1.880565         2.068906        -0.166513
 H         0.580819        -0.068059         0.418757
 H         1.234748         2.071420         1.290830
 H         0.625640         3.092384        -0.265946
 H         0.286047         4.304759         2.034241
 H        -1.231516         2.645398         3.839930
 H        -0.442644         0.398002         2.553906
 H        -2.200433         0.565743         2.138564
 H        -2.271515         4.343575         2.302714
 H        -2.626339         1.306642        -0.341303
 H        -1.599766         2.546060        -1.116927
