19
Iteration:  2380charge 0 multiplicity 1
 O        -0.187070         0.253331        -0.103965
 C        -0.676703         1.403425         0.590113
 C         0.344384         2.577385         0.736489
 C        -0.284060         3.532788         1.770653
 C        -1.036518         2.574575         2.685585
 C        -1.048876         1.144907         2.090101
 C        -1.746508         3.502680         1.722059
 O        -2.589826         2.923505         0.805826
 C        -2.025652         1.934025        -0.036431
 H         0.587934        -0.033031         0.431268
 H         1.268828         2.055064         1.096687
 H         0.449939         3.130686        -0.220199
 H         0.245192         4.433172         2.182820
 H        -1.287459         2.725636         3.708908
 H        -0.432081         0.359628         2.607426
 H        -2.160115         0.777310         2.083261
 H        -2.307346         4.293078         2.197147
 H        -2.646537         0.988455        -0.267343
 H        -1.833585         2.459795        -0.959067
