19
Iteration:    19charge 0 multiplicity 1
 O        -0.350038         0.341264        -0.277491
 C        -0.642735         1.381618         0.792690
 C         0.422649         2.566469         0.841611
 C        -0.327433         3.618718         1.816345
 C        -1.085231         2.515500         2.735366
 C        -1.112551         1.022144         2.225544
 C        -1.842701         3.419606         1.766503
 O        -2.498820         3.036974         0.537354
 C        -1.827859         1.932843        -0.073359
 H         0.443774        -0.130952        -0.004742
 H         1.447105         2.247353         1.300973
 H         0.473499         2.882896        -0.193771
 H         0.244360         4.547527         2.302277
 H        -1.258468         2.715853         3.795653
 H        -0.361508         0.298966         2.691181
 H        -2.081649         0.540895         2.345248
 H        -2.416372         4.071568         2.452010
 H        -2.583472         1.145934        -0.208994
 H        -1.572187         2.209588        -1.110692
