19
Iteration:  4151charge 0 multiplicity 1
 O        -0.236041         0.158200         0.074395
 C        -0.645632         1.458502         0.621445
 C         0.167361         2.786794         0.398217
 C        -0.283905         3.639477         1.613359
 C        -0.904409         2.613233         2.626089
 C        -0.658564         1.231923         2.044798
 C        -1.843551         3.442914         1.793115
 O        -2.752402         2.817942         0.890196
 C        -2.098211         1.717989         0.235996
 H         0.276513         0.288469        -0.740317
 H         1.218231         2.393136         0.408020
 H        -0.089255         3.306343        -0.626552
 H         0.168683         4.660586         1.892682
 H        -0.748375         2.634861         3.709652
 H         0.355457         0.972803         2.449028
 H        -1.235015         0.477537         2.426847
 H        -2.274548         4.439090         2.168720
 H        -2.593242         0.757141         0.538294
 H        -2.302592         1.811506        -0.848211
