19
Iteration:   491
 O        -0.216635         0.263927        -0.137695
 C        -0.633606         1.448400         0.667949
 C         0.421472         2.552886         0.797804
 C        -0.296988         3.444843         1.825368
 C        -1.329123         2.397333         2.724969
 C        -0.933741         1.063539         2.117533
 C        -1.770898         3.479853         1.760875
 O        -2.583743         3.151836         0.564909
 C        -1.964650         2.002674        -0.052051
 H         0.494189        -0.177434         0.400375
 H         1.274892         2.116635         1.401813
 H         0.787023         3.002681        -0.199815
 H         0.337073         4.307272         2.376348
 H        -1.641891         2.654851         3.692277
 H        -0.099303         0.666337         2.747605
 H        -1.689155         0.195642         2.222014
 H        -2.256480         4.287268         2.170335
 H        -2.789526         1.369555         0.041270
 H        -1.758901         2.313985        -1.014474
