19
Iteration:  1977charge 0 multiplicity 1
 O        -0.303641         0.315311        -0.083267
 C        -0.679107         1.497331         0.629863
 C         0.388651         2.563561         0.789982
 C        -0.219236         3.444885         1.939954
 C        -1.172379         2.507972         2.775508
 C        -1.088495         1.163564         2.097013
 C        -1.834785         3.441876         1.754229
 O        -2.536640         2.949391         0.610195
 C        -1.851197         1.963237        -0.192280
 H         0.357285        -0.204468         0.420612
 H         1.405592         2.217386         1.093189
 H         0.465491         3.137856        -0.165126
 H         0.432589         4.153210         2.378695
 H        -1.353984         2.537639         3.835021
 H        -0.403278         0.431700         2.556914
 H        -2.071774         0.626766         2.161483
 H        -2.224005         4.428982         2.115085
 H        -2.497907         1.093734        -0.498489
 H        -1.426239         2.413232        -1.068314
