19
Iteration:   684
 O        -0.183801         0.362794        -0.112136
 C        -0.670889         1.405799         0.675043
 C         0.199215         2.618558         0.773808
 C        -0.274864         3.413622         1.910032
 C        -1.202650         2.441419         2.674738
 C        -0.997524         1.047253         2.094293
 C        -1.827302         3.508818         1.766768
 O        -2.388149         3.161875         0.515947
 C        -1.964821         1.870293         0.017061
 H         0.510792        -0.081344         0.464856
 H         1.308047         2.226311         0.927503
 H         0.190231         3.055934        -0.238346
 H         0.441864         4.071900         2.250132
 H        -1.494657         2.486484         3.737935
 H        -0.241178         0.371397         2.651020
 H        -1.906671         0.430602         2.155128
 H        -2.339492         4.286123         2.430961
 H        -2.900592         1.224079         0.040884
 H        -1.780173         1.934775        -1.036598
