19
Iteration:  2431charge 0 multiplicity 1
 O        -0.159674         0.183000        -0.025082
 C        -0.659774         1.388695         0.676205
 C         0.420504         2.664186         0.745275
 C        -0.304861         3.532425         1.715844
 C        -1.108132         2.542878         2.659578
 C        -0.937843         1.104873         2.090145
 C        -1.754398         3.468358         1.778282
 O        -2.675565         3.001548         0.736407
 C        -1.994030         1.963242        -0.028342
 H        -0.873519        -0.238310        -0.569095
 H         1.325717         2.275927         1.166142
 H         0.475379         3.192603        -0.280143
 H         0.189588         4.560195         1.922606
 H        -1.202637         2.526503         3.802962
 H        -0.005745         0.687666         2.450462
 H        -1.831247         0.548869         2.241465
 H        -2.309345         4.273630         2.280007
 H        -2.674610         1.082222        -0.090646
 H        -1.896136         2.219163        -1.147531
