19
Iteration:  2966
 O        -0.159880         0.257181         0.004245
 C        -0.696625         1.379233         0.671779
 C         0.187324         2.669421         0.510955
 C        -0.350203         3.496516         1.755985
 C        -1.016435         2.442093         2.731419
 C        -0.701639         1.076563         2.189816
 C        -1.909115         3.488305         1.815896
 O        -2.509517         3.180209         0.630356
 C        -2.120104         1.768230         0.053597
 H        -0.266323         0.507503        -0.919344
 H         1.243502         2.333765         0.812975
 H         0.136308         3.106624        -0.425452
 H         0.291601         4.208092         2.213557
 H        -1.000608         2.785781         3.745699
 H         0.280437         0.721383         2.524955
 H        -1.437455         0.322506         2.428609
 H        -2.419803         4.224270         2.319652
 H        -2.975162         1.162253         0.240776
 H        -2.090861         1.845514        -1.049079
