19
Iteration:  3313
 O        -0.349858         0.244649        -0.121960
 C        -0.610531         1.412524         0.600295
 C         0.264471         2.714948         0.617156
 C        -0.404747         3.533281         1.688281
 C        -0.966093         2.570952         2.739060
 C        -0.695385         1.168707         2.199183
 C        -1.819985         3.464881         1.825511
 O        -2.655788         2.900507         0.712156
 C        -2.025365         1.758995         0.106977
 H         0.359671         0.401209        -0.789835
 H         1.356928         2.428835         0.869981
 H         0.349428         3.261344        -0.420344
 H         0.033760         4.548083         1.990560
 H        -0.870282         2.986830         3.738552
 H         0.330074         0.924441         2.497406
 H        -1.474598         0.514155         2.530031
 H        -2.365435         4.262738         2.333185
 H        -2.785428         0.919536         0.269597
 H        -1.995729         1.987628        -0.982193
