19
Iteration:  4738
 O        -0.074337         0.378804        -0.163613
 C        -0.697382         1.363449         0.646819
 C         0.173919         2.545848         0.512802
 C        -0.277625         3.475065         1.661799
 C        -1.041688         2.521837         2.654748
 C        -0.674498         1.207269         2.196257
 C        -1.833977         3.518184         1.739307
 O        -2.733492         3.084320         0.750601
 C        -2.147072         1.714500         0.261504
 H         0.267335        -0.351507         0.406891
 H         1.132050         2.157487         0.670584
 H         0.095671         3.071989        -0.428799
 H         0.431459         4.234569         2.088333
 H        -1.246137         2.731559         3.748552
 H         0.338093         1.010498         2.568402
 H        -1.341816         0.275751         2.517407
 H        -2.129656         4.564791         2.078678
 H        -2.836759         0.981238         0.534517
 H        -2.043828         1.825495        -0.866622
