19
Iteration:  4911charge 0 multiplicity 1
 O        -0.204695         0.289994         0.012901
 C        -0.715761         1.404217         0.635657
 C         0.252767         2.608808         0.492275
 C        -0.370123         3.582292         1.583599
 C        -0.873192         2.563309         2.631124
 C        -0.686417         1.207023         2.077322
 C        -1.889302         3.445413         1.837884
 O        -2.733852         2.893261         0.833830
 C        -2.075084         1.870631         0.094757
 H         0.166990        -0.224439         0.732049
 H         1.276707         2.282367         0.847782
 H         0.433726         3.026693        -0.552569
 H         0.015485         4.595083         1.749124
 H        -0.681482         2.593959         3.665118
 H         0.269215         0.753469         2.544292
 H        -1.430819         0.601140         2.461113
 H        -2.342064         4.174169         2.459468
 H        -2.763540         0.948236         0.027450
 H        -1.885531         2.195307        -0.918381
