19
Iteration:  2045charge 0 multiplicity 1
 O        -0.113014         0.358512        -0.045930
 C        -0.746536         1.454750         0.655183
 C         0.304173         2.514289         0.752015
 C        -0.247022         3.354640         1.845974
 C        -1.248501         2.455476         2.750671
 C        -1.116788         1.089084         2.070457
 C        -1.757102         3.538940         1.760352
 O        -2.373740         3.117266         0.525634
 C        -2.066290         1.864251         0.013259
 H         0.818231         0.571176        -0.129321
 H         1.224334         1.964791         0.948914
 H         0.430310         3.173747        -0.154289
 H         0.185081         4.215879         2.436389
 H        -1.444910         2.593631         3.830421
 H        -0.261468         0.514086         2.529106
 H        -1.945237         0.465346         2.202972
 H        -2.062815         4.477017         2.152665
 H        -2.943722         1.139422         0.120639
 H        -1.904842         2.076304        -0.998050
