19
Iteration:  2722
 O        -0.094465         0.313695        -0.024923
 C        -0.727711         1.386700         0.701466
 C         0.076856         2.643253         0.571963
 C        -0.340954         3.505760         1.771102
 C        -1.052191         2.430790         2.647460
 C        -0.749514         1.096866         2.166563
 C        -1.807180         3.492034         1.780213
 O        -2.430460         3.139688         0.558026
 C        -2.124744         1.765138         0.193730
 H        -0.646899         0.077631        -0.804378
 H         1.236905         2.450404         0.663686
 H        -0.122945         3.085822        -0.383850
 H         0.291236         4.346171         2.000293
 H        -1.152730         2.628662         3.693187
 H         0.248830         0.883265         2.565912
 H        -1.457679         0.322965         2.475526
 H        -2.408258         4.206396         2.237229
 H        -2.909758         1.157456         0.701156
 H        -2.196593         1.802902        -0.873268
