19
Iteration:  3118
 O         0.017328         0.382124        -0.149195
 C        -0.686491         1.369248         0.647413
 C         0.117477         2.639528         0.529566
 C        -0.265112         3.419676         1.711751
 C        -1.046109         2.507240         2.738700
 C        -0.859255         1.140853         2.180308
 C        -1.839418         3.483930         1.835397
 O        -2.550113         3.101073         0.660122
 C        -2.182339         1.766553         0.159863
 H         0.222997        -0.432507         0.363062
 H         1.189574         2.231943         0.626855
 H         0.044791         3.087085        -0.485964
 H         0.312899         4.418336         1.888784
 H        -0.911811         2.588551         3.887193
 H         0.043821         0.712858         2.739192
 H        -1.698311         0.480093         2.127885
 H        -2.468166         4.300118         2.255151
 H        -2.908066         1.031345         0.493321
 H        -2.394148         1.993311        -0.916456
