19
Iteration:  4460charge 0 multiplicity 1
 O        -0.294822         0.196098        -0.082216
 C        -0.641095         1.433450         0.619958
 C         0.262847         2.750185         0.527506
 C        -0.342869         3.554463         1.651918
 C        -0.993997         2.602485         2.672303
 C        -0.720081         1.175491         2.146588
 C        -1.827634         3.505246         1.820736
 O        -2.660096         2.945035         0.746845
 C        -2.092631         1.707336         0.155202
 H         0.585936        -0.119279         0.179350
 H         1.248870         2.499057         0.821509
 H         0.196251         3.288035        -0.447869
 H         0.295575         4.433526         2.044222
 H        -0.760600         2.716807         3.757124
 H         0.288389         0.749232         2.424290
 H        -1.401561         0.398848         2.366606
 H        -2.346476         4.351712         2.403287
 H        -2.686574         0.878045         0.473722
 H        -2.120953         1.859027        -0.995073
