19
Iteration:  1468
 O        -0.182617         0.221647        -0.065310
 C        -0.668284         1.421334         0.630470
 C         0.322446         2.651924         0.708030
 C        -0.323043         3.433896         1.875290
 C        -1.113488         2.519933         2.767834
 C        -1.217780         1.131453         2.041543
 C        -1.798978         3.518882         1.822258
 O        -2.495055         2.919473         0.699943
 C        -1.837360         1.994816        -0.129221
 H         0.799990         0.095057         0.104602
 H         1.407250         2.338896         0.776685
 H         0.288913         3.244750        -0.242546
 H         0.081582         4.339981         2.455877
 H        -0.982990         2.398063         3.806835
 H        -0.620154         0.458129         2.626505
 H        -2.317152         0.736762         2.009903
 H        -2.304678         4.441659         1.918152
 H        -2.551591         1.217403        -0.365406
 H        -1.554407         2.456761        -1.040962
