19
Iteration:  3121
 O         0.038971         0.393180        -0.164613
 C        -0.682320         1.374998         0.665141
 C         0.082639         2.632322         0.512589
 C        -0.288927         3.412592         1.728856
 C        -1.049784         2.504816         2.736611
 C        -0.855902         1.116360         2.194140
 C        -1.815750         3.496557         1.832499
 O        -2.540572         3.108960         0.661638
 C        -2.167301         1.767016         0.155360
 H         0.071767        -0.449830         0.352229
 H         1.206511         2.186095         0.670847
 H        -0.033644         3.029063        -0.487685
 H         0.241726         4.391948         1.893820
 H        -0.945472         2.682061         3.811317
 H         0.056258         0.765545         2.655201
 H        -1.736764         0.455068         2.207446
 H        -2.401343         4.380285         2.246772
 H        -2.918135         1.053918         0.553133
 H        -2.410498         1.882802        -0.967891
