19
Iteration:   975
 O        -0.230066         0.261029        -0.177678
 C        -0.603801         1.392395         0.586285
 C         0.428257         2.670748         0.849951
 C        -0.302793         3.489305         1.889510
 C        -1.286631         2.463538         2.743493
 C        -1.034413         1.168190         2.051906
 C        -1.795651         3.513997         1.778240
 O        -2.525009         3.024192         0.615307
 C        -1.952820         1.849071        -0.020392
 H         0.649249        -0.090978         0.157803
 H         1.460416         2.340720         1.119881
 H         0.566328         3.176060        -0.138256
 H         0.134558         4.295074         2.352846
 H        -1.156551         2.319524         3.859228
 H        -0.396081         0.542875         2.700762
 H        -1.999405         0.542986         2.030720
 H        -2.257506         4.580309         2.088102
 H        -2.651498         1.048680         0.101666
 H        -1.930278         2.174288        -1.035806
