19
Iteration:  3235charge 0 multiplicity 1
 O        -0.080209         0.362718        -0.130391
 C        -0.698071         1.439800         0.627002
 C         0.192103         2.690134         0.561600
 C        -0.261620         3.535704         1.658890
 C        -0.894541         2.578067         2.710601
 C        -1.032188         1.217514         2.146308
 C        -1.788241         3.496530         1.769177
 O        -2.656147         2.745088         0.934972
 C        -2.011556         1.816440        -0.017663
 H        -0.219856        -0.467606         0.403612
 H         1.295192         2.262472         0.687020
 H         0.309712         3.125102        -0.496870
 H         0.463019         4.387093         1.890547
 H        -0.892606         2.751280         3.880609
 H        -0.307030         0.522744         2.569707
 H        -2.101183         0.886786         2.251529
 H        -2.406549         4.307554         2.272294
 H        -2.835127         1.034994         0.000749
 H        -1.823809         2.231018        -1.005572
