19
Iteration:  3494charge 0 multiplicity 1
 O        -0.109888         0.272239        -0.001204
 C        -0.656130         1.444035         0.608604
 C         0.202130         2.779914         0.463252
 C        -0.271442         3.589930         1.589223
 C        -0.867362         2.635340         2.664195
 C        -0.858117         1.229880         2.024183
 C        -1.766120         3.491106         1.846708
 O        -2.760699         2.649592         0.998167
 C        -2.065140         1.805374         0.039065
 H        -0.730938        -0.440849         0.304493
 H         1.240823         2.547888         0.561023
 H         0.195228         3.407678        -0.409107
 H         0.197676         4.576661         1.887290
 H        -0.865778         2.767284         3.781190
 H         0.061855         0.700483         2.403028
 H        -1.849366         0.672692         2.185282
 H        -2.211267         4.396895         2.133651
 H        -2.677642         0.820810         0.134922
 H        -2.273532         2.144176        -0.952200
