19
Iteration:  1181
 O        -0.139722         0.350169        -0.227437
 C        -0.665967         1.327373         0.740662
 C         0.339238         2.499060         0.731495
 C        -0.336371         3.400540         1.842389
 C        -1.151987         2.520443         2.701097
 C        -0.942894         1.036710         2.211576
 C        -1.916061         3.538597         1.749061
 O        -2.640593         3.081470         0.591013
 C        -1.894444         2.019395        -0.011160
 H         0.618528        -0.121194         0.067210
 H         1.235892         2.213445         1.231831
 H         0.649315         3.164924        -0.086284
 H         0.279408         4.117505         2.047911
 H        -1.135353         2.904360         3.681607
 H        -0.218537         0.585736         2.852513
 H        -1.984909         0.514951         2.373184
 H        -2.480053         4.196478         2.411873
 H        -2.585921         1.172091        -0.252982
 H        -1.312609         2.301421        -0.940751
