19
Iteration:  2152charge 0 multiplicity 1
 O        -0.180538         0.350012        -0.195502
 C        -0.646160         1.381363         0.678727
 C         0.345159         2.570150         0.762755
 C        -0.291578         3.481437         1.771651
 C        -1.250150         2.561491         2.726947
 C        -1.204143         1.118301         2.133734
 C        -1.748823         3.497923         1.729963
 O        -2.426916         2.959178         0.741816
 C        -1.877442         1.927463        -0.020925
 H        -0.317947        -0.530134         0.160981
 H         1.330979         2.121073         1.157532
 H         0.581329         2.749999        -0.275098
 H         0.232407         4.406078         2.167219
 H        -1.220648         2.780317         3.815106
 H        -0.546475         0.419786         2.642022
 H        -2.281017         0.859945         2.092530
 H        -2.208123         4.316475         2.271355
 H        -2.560600         1.151749        -0.404594
 H        -1.440989         2.382428        -0.969685
