19
Iteration:  4094
 O        -0.212971         0.316345        -0.104519
 C        -0.601123         1.374471         0.700572
 C         0.092240         2.690897         0.380234
 C        -0.304940         3.620789         1.552178
 C        -0.906516         2.692506         2.629573
 C        -0.688822         1.229953         2.318235
 C        -1.834928         3.502327         1.809029
 O        -2.624424         2.736865         0.887224
 C        -2.130157         1.644386         0.203800
 H        -0.287796         0.721722        -0.997167
 H         1.199553         2.439734         0.283991
 H        -0.153857         3.115718        -0.641300
 H         0.385329         4.471723         1.757765
 H        -0.784186         2.908057         3.695718
 H         0.133270         0.880302         2.853360
 H        -1.584041         0.706213         2.511983
 H        -2.451079         4.123688         2.325933
 H        -2.758820         0.794349         0.271381
 H        -2.041164         1.971298        -0.901721
