19
Iteration:  3519
 O        -0.116332         0.316253        -0.084531
 C        -0.728605         1.387721         0.698326
 C         0.213526         2.642996         0.415622
 C        -0.388564         3.529053         1.558044
 C        -0.919896         2.658862         2.674375
 C        -0.639433         1.245582         2.224463
 C        -1.870676         3.423886         1.837554
 O        -2.702642         2.777640         0.913722
 C        -2.059352         1.851140         0.100720
 H        -0.781587        -0.179392        -0.626622
 H         1.226900         2.249410         0.715268
 H         0.321781         3.135103        -0.533055
 H        -0.065283         4.465346         1.927122
 H        -0.788553         3.050568         3.608533
 H         0.459552         0.839274         2.527060
 H        -1.559993         0.577116         2.588597
 H        -2.396768         4.267769         2.302776
 H        -2.823820         0.981517        -0.096646
 H        -2.003926         2.292015        -0.983872
