19
Iteration:  2661
 O        -0.209448         0.400060        -0.172399
 C        -0.676308         1.427459         0.706225
 C         0.309786         2.588474         0.610350
 C        -0.326669         3.520204         1.648512
 C        -1.060456         2.563047         2.776772
 C        -0.875610         1.142360         2.281400
 C        -1.811956         3.447568         1.770531
 O        -2.563516         2.949160         0.721759
 C        -2.029919         1.816281         0.018414
 H        -0.631107        -0.465397         0.049844
 H         1.251176         2.261277         0.939527
 H         0.223597         2.877128        -0.488018
 H         0.186337         4.472943         1.823181
 H        -0.890851         2.758294         3.831385
 H         0.098928         0.743815         2.637892
 H        -1.664264         0.388345         2.370354
 H        -2.334261         4.355393         2.251056
 H        -2.780703         1.068287        -0.117871
 H        -1.669853         1.952293        -1.038084
