19
Iteration:  1585
 O        -0.066057         0.277835        -0.069926
 C        -0.718433         1.316620         0.662681
 C         0.254894         2.699878         0.727127
 C        -0.298192         3.436485         1.868319
 C        -1.208432         2.419728         2.660926
 C        -1.075805         1.038487         2.089650
 C        -1.805463         3.491038         1.813418
 O        -2.343854         3.252089         0.546196
 C        -2.081799         1.816802         0.006179
 H         0.690354         0.015141         0.489587
 H         1.283550         2.462402         0.662872
 H         0.212569         3.306691        -0.189604
 H         0.272069         4.214910         2.453990
 H        -1.608277         2.539621         3.640911
 H        -0.198634         0.427375         2.615675
 H        -1.901097         0.368064         2.112894
 H        -2.234337         4.198762         2.383843
 H        -3.027046         1.231687         0.145112
 H        -1.956629         2.191582        -1.087633
