19
Iteration:  2900charge 0 multiplicity 1
 O        -0.150266         0.324375        -0.169991
 C        -0.698437         1.365925         0.704450
 C         0.132933         2.633262         0.597977
 C        -0.293160         3.502750         1.766751
 C        -1.057265         2.542667         2.761764
 C        -0.804922         1.129695         2.267088
 C        -1.789691         3.480113         1.749796
 O        -2.477016         3.111401         0.580251
 C        -2.090871         1.697124         0.168401
 H        -0.005541         0.693193        -1.080329
 H         1.277153         2.330376         0.615396
 H        -0.143211         3.077363        -0.305008
 H         0.314661         4.329428         2.000369
 H        -1.224562         2.620333         3.833989
 H        -0.012583         0.493303         2.712752
 H        -1.632708         0.428642         2.294465
 H        -2.350292         4.260613         2.328729
 H        -2.798828         0.864529         0.545727
 H        -2.395126         1.774054        -0.909975
