19
Iteration:  1666
 O        -0.350429         0.248174        -0.158365
 C        -0.573475         1.394451         0.679624
 C         0.429780         2.589638         0.794285
 C        -0.352429         3.413375         1.807028
 C        -1.255784         2.487788         2.721195
 C        -0.974819         1.123025         2.161064
 C        -1.897713         3.456939         1.835110
 O        -2.530515         3.060231         0.591394
 C        -1.763110         2.039795        -0.109348
 H         0.385683        -0.277135         0.143740
 H         1.298020         2.155138         1.219141
 H         0.592059         3.096289        -0.150795
 H         0.109205         4.293281         2.229307
 H        -1.173222         2.511137         3.845049
 H        -0.200655         0.692532         2.761180
 H        -1.937213         0.466687         2.152606
 H        -2.391526         4.458159         2.263626
 H        -2.544484         1.249487        -0.140133
 H        -1.630847         2.419214        -1.132496
