19
Iteration:  3636
 O        -0.273309         0.259706        -0.110051
 C        -0.685481         1.462045         0.632263
 C         0.124691         2.729958         0.535359
 C        -0.326293         3.556517         1.607507
 C        -0.944122         2.606570         2.684660
 C        -0.609706         1.232814         2.140191
 C        -1.792191         3.457735         1.804976
 O        -2.646570         2.848396         0.802058
 C        -2.113688         1.673549         0.218906
 H         0.672852         0.414513        -0.277349
 H         1.225927         2.448144         0.635150
 H         0.016161         3.214499        -0.480334
 H         0.041429         4.548293         1.778609
 H        -1.004240         2.794308         3.723000
 H         0.312631         0.887163         2.473182
 H        -1.291057         0.466992         2.497536
 H        -2.356736         4.281945         2.322419
 H        -2.738193         0.826644         0.501171
 H        -2.239403         1.809635        -0.934121
