19
Iteration:  4257charge 0 multiplicity 1
 O        -0.290498         0.285994        -0.128476
 C        -0.730866         1.348258         0.690591
 C         0.122660         2.787556         0.461287
 C        -0.419099         3.595554         1.575601
 C        -0.809690         2.620113         2.686675
 C        -0.609630         1.171233         2.264882
 C        -1.853372         3.432242         1.807494
 O        -2.580430         2.857419         0.743206
 C        -2.117588         1.714558         0.182039
 H         0.331274        -0.291709         0.354912
 H         1.199781         2.611418         0.522563
 H        -0.053683         3.239452        -0.441493
 H        -0.003751         4.719577         1.662934
 H        -0.458707         2.973966         3.669471
 H         0.371111         1.041488         2.662176
 H        -1.393790         0.361932         2.633904
 H        -2.441884         4.179935         2.463340
 H        -2.862262         0.835687         0.266151
 H        -1.982131         2.051797        -0.860767
