19
Iteration:  2753charge 0 multiplicity 1
 O        -0.255280         0.169743         0.010824
 C        -0.667214         1.426581         0.629929
 C         0.137059         2.802199         0.491215
 C        -0.316716         3.503248         1.798939
 C        -0.971874         2.524435         2.763915
 C        -0.836427         1.181340         2.189978
 C        -1.788005         3.397783         1.813803
 O        -2.446648         2.986030         0.664434
 C        -2.057142         1.796394         0.021323
 H        -0.003060         0.381443        -0.898749
 H         1.209326         2.657252         0.627156
 H        -0.325857         3.351424        -0.317223
 H         0.146281         4.456768         1.985151
 H        -1.046850         2.690773         3.835808
 H         0.019323         0.732211         2.616563
 H        -1.750990         0.611126         2.410704
 H        -2.366278         4.154998         2.105898
 H        -2.680034         0.958959         0.235544
 H        -2.192652         1.979674        -1.111449
