19
Iteration:  4863charge 0 multiplicity 1
 O        -0.244494         0.329756        -0.194778
 C        -0.600127         1.403654         0.692904
 C         0.208763         2.629330         0.547871
 C        -0.319637         3.586719         1.552443
 C        -0.862883         2.696735         2.684579
 C        -0.955154         1.237903         2.155970
 C        -1.830512         3.488526         1.756036
 O        -2.636035         2.728071         0.967448
 C        -2.011842         1.774595         0.124169
 H         0.540824        -0.135622         0.182017
 H         1.284264         2.377788         0.588941
 H         0.100662         3.016598        -0.444304
 H         0.335206         4.398710         1.851575
 H        -0.863830         3.057157         3.760798
 H        -0.214151         0.533221         2.674331
 H        -1.976711         0.660628         2.327912
 H        -2.285452         4.460368         2.106819
 H        -2.603561         0.824816         0.179774
 H        -2.009352         2.125470        -0.959519
