19
Iteration:  1076
 O        -0.205608         0.322307        -0.232917
 C        -0.655152         1.414838         0.666526
 C         0.360129         2.576133         0.855185
 C        -0.320311         3.464196         1.917059
 C        -1.147514         2.479608         2.705373
 C        -0.979027         1.129830         2.185930
 C        -1.819759         3.439102         1.705065
 O        -2.543240         3.050636         0.557451
 C        -1.994808         1.918805        -0.028538
 H         0.522785        -0.129383         0.170503
 H         1.344034         2.199960         1.266529
 H         0.553848         3.169263        -0.045352
 H         0.200207         4.436291         2.200484
 H        -1.368367         2.631477         3.698312
 H        -0.147024         0.608659         2.791785
 H        -1.881427         0.559644         2.328697
 H        -2.394206         4.161617         2.224668
 H        -2.740919         1.150728        -0.137040
 H        -1.666167         2.235163        -0.987012
