19
Iteration:  4046charge 0 multiplicity 1
 O        -0.052839         0.263974         0.051823
 C        -0.748530         1.422371         0.605298
 C         0.152903         2.706640         0.372308
 C        -0.405635         3.676886         1.487772
 C        -0.858618         2.628186         2.612299
 C        -0.603621         1.138677         2.141148
 C        -1.838161         3.397920         1.919498
 O        -2.770468         2.901565         0.904931
 C        -2.147313         1.752789         0.167165
 H        -0.436938        -0.435914        -0.507875
 H         1.099341         2.261775         0.705392
 H         0.302147         2.961664        -0.631765
 H         0.145819         4.486660         1.934993
 H        -0.642136         3.002725         3.620473
 H         0.424711         0.862961         2.236858
 H        -1.425020         0.455010         2.626009
 H        -2.277641         4.398325         2.379893
 H        -2.681125         0.841469         0.433763
 H        -2.185070         1.894727        -0.967129
