19
Iteration:  1849charge 0 multiplicity 1
 O        -0.100723         0.361862        -0.099328
 C        -0.752558         1.374856         0.672452
 C         0.267940         2.521153         0.844442
 C        -0.258549         3.420729         1.889602
 C        -1.144631         2.456703         2.707998
 C        -1.062592         1.054304         2.092232
 C        -1.802885         3.477729         1.733322
 O        -2.490324         3.189577         0.523014
 C        -2.002104         1.949551        -0.062642
 H         0.514406        -0.096303         0.510413
 H         1.367185         2.104533         1.015495
 H         0.351587         2.922358        -0.198840
 H         0.448868         4.104815         2.324301
 H        -1.433166         2.531454         3.758283
 H        -0.166655         0.570110         2.566866
 H        -1.964676         0.522697         2.191778
 H        -2.233798         4.288039         2.360508
 H        -2.782283         1.158453         0.106519
 H        -1.812996         2.079739        -1.158126
