19
Iteration:   475charge 0 multiplicity 1
 O        -0.215833         0.348733        -0.121791
 C        -0.704878         1.381363         0.624156
 C         0.300664         2.537644         0.867939
 C        -0.326420         3.456252         1.834603
 C        -1.275201         2.452523         2.665160
 C        -0.969112         1.039620         2.091944
 C        -1.853028         3.536497         1.772238
 O        -2.396972         3.159454         0.597312
 C        -1.942099         1.917357        -0.035039
 H         0.367256        -0.172574         0.422699
 H         1.271530         2.159648         1.120847
 H         0.562999         2.942715        -0.083925
 H         0.181033         4.235014         2.315783
 H        -1.207306         2.497272         3.797907
 H         0.019995         0.622146         2.427483
 H        -1.673800         0.210474         2.240924
 H        -2.362561         4.450169         2.278487
 H        -2.691977         1.050242        -0.036094
 H        -1.658210         2.088129        -1.157613
