19
Iteration:  3569charge 0 multiplicity 1
 O        -0.174282         0.328859        -0.012699
 C        -0.657526         1.524053         0.545892
 C         0.201654         2.762230         0.442318
 C        -0.285845         3.509510         1.652384
 C        -0.981011         2.579324         2.639952
 C        -0.736358         1.244104         2.153776
 C        -1.846527         3.444461         1.823038
 O        -2.596142         2.837448         0.796409
 C        -2.160060         1.597555         0.264150
 H        -0.608938         0.096511        -0.842803
 H         1.292922         2.574162         0.689880
 H         0.109291         3.425081        -0.499912
 H         0.382474         4.315432         2.036896
 H        -0.812374         2.860571         3.741842
 H         0.187776         1.027089         2.533419
 H        -1.380565         0.503160         2.448463
 H        -2.372865         4.282672         2.136505
 H        -2.589288         0.683205         0.591163
 H        -2.524796         1.690894        -0.832190
