19
Iteration:   720
 O        -0.293489         0.269900        -0.239962
 C        -0.604976         1.456373         0.614513
 C         0.344345         2.580167         0.806067
 C        -0.329226         3.429708         1.901634
 C        -1.259024         2.511774         2.796543
 C        -0.960190         1.147601         2.179390
 C        -1.830151         3.421032         1.798261
 O        -2.407801         3.091128         0.535920
 C        -1.954953         1.884476        -0.050645
 H         0.462949        -0.192419         0.212933
 H         1.429262         2.385124         1.132863
 H         0.404514         3.319806        -0.100498
 H         0.321549         4.252390         2.282734
 H        -1.560731         2.580249         3.862621
 H        -0.114186         0.666905         2.679476
 H        -1.976121         0.553560         2.140763
 H        -2.470860         4.266995         2.301571
 H        -2.758202         1.122379         0.126906
 H        -1.620689         2.154874        -1.140855
