19
Iteration:  2491
 O        -0.142787         0.332623        -0.170427
 C        -0.728168         1.304185         0.731317
 C         0.089875         2.640161         0.551633
 C        -0.245153         3.427283         1.810782
 C        -1.083099         2.537576         2.715136
 C        -0.846715         1.062054         2.316652
 C        -1.830558         3.515371         1.773214
 O        -2.458283         3.096493         0.542045
 C        -2.068373         1.852999         0.058744
 H         0.640281         0.044371         0.333110
 H         1.206149         2.483141         0.506309
 H        -0.158130         3.208219        -0.332714
 H         0.381890         4.212019         2.191460
 H        -1.098058         2.794638         3.797164
 H        -0.070287         0.532013         2.912925
 H        -1.761759         0.395664         2.432234
 H        -2.394997         4.385890         2.255559
 H        -2.891338         1.072360         0.241147
 H        -1.920815         1.991100        -0.987666
