19
Iteration:  1083
 O        -0.183327         0.367923        -0.219585
 C        -0.675286         1.337420         0.666628
 C         0.357443         2.581046         0.864832
 C        -0.318306         3.438041         1.864873
 C        -1.133425         2.508964         2.673934
 C        -0.988004         1.135443         2.193145
 C        -1.891666         3.461228         1.768726
 O        -2.507654         3.085350         0.582084
 C        -1.973095         1.878310        -0.046772
 H         0.511944        -0.183927         0.164302
 H         1.268810         2.128840         1.253818
 H         0.481369         3.021750        -0.132757
 H         0.143799         4.282527         2.168812
 H        -1.258666         2.673121         3.778402
 H        -0.132892         0.753361         2.695393
 H        -1.890376         0.445382         2.250457
 H        -2.448601         4.258799         2.391327
 H        -2.840525         1.174990        -0.317250
 H        -1.545422         2.171315        -1.090560
