19
Iteration:    94charge 0 multiplicity 1
 O        -0.183470         0.289192        -0.088893
 C        -0.689000         1.389863         0.608487
 C         0.303524         2.579485         0.698496
 C        -0.331519         3.465279         1.777614
 C        -1.068065         2.454805         2.802965
 C        -1.252900         1.116210         2.099699
 C        -1.870612         3.511372         1.920478
 O        -2.448816         3.011093         0.641443
 C        -1.797265         1.953798        -0.147085
 H         0.625877         0.170846         0.470703
 H         1.327617         2.345714         0.979015
 H         0.405237         3.079331        -0.325437
 H         0.383133         4.349336         2.173679
 H        -0.985400         2.440692         3.892129
 H        -0.563909         0.373115         2.576659
 H        -2.364549         0.728575         2.153849
 H        -2.178566         4.500755         2.250532
 H        -2.658319         1.132334        -0.206409
 H        -1.638393         2.480523        -1.141819
