19
Iteration:   761charge 0 multiplicity 1
 O        -0.092355         0.337284        -0.097932
 C        -0.639214         1.357261         0.654337
 C         0.364127         2.545576         0.779176
 C        -0.288151         3.426559         1.810385
 C        -1.219141         2.443102         2.737036
 C        -1.065245         1.087152         2.100633
 C        -1.812933         3.460736         1.740977
 O        -2.573662         3.111399         0.640241
 C        -1.979160         2.024001        -0.079907
 H         0.660448        -0.037358         0.416129
 H         1.308508         2.009971         1.060423
 H         0.418438         2.926006        -0.233651
 H         0.222118         4.232452         2.236674
 H        -1.411018         2.712240         3.804326
 H        -0.297278         0.441386         2.639486
 H        -2.031888         0.568763         2.016919
 H        -2.155987         4.291998         2.466867
 H        -2.727247         1.186986        -0.157823
 H        -1.885837         2.419692        -1.049212
