19
Iteration:  4369charge 0 multiplicity 1
 O        -0.324076         0.202463        -0.074394
 C        -0.658354         1.371257         0.666379
 C         0.214537         2.747287         0.469382
 C        -0.344587         3.520237         1.623404
 C        -0.923082         2.662362         2.649471
 C        -0.639295         1.238025         2.160339
 C        -1.870437         3.427441         1.806948
 O        -2.660120         2.851784         0.857968
 C        -2.058985         1.795400         0.124856
 H         0.611423        -0.018272         0.147634
 H         1.258172         2.564628         0.475289
 H        -0.071718         3.252450        -0.413347
 H         0.063743         4.454956         1.890761
 H        -0.981857         2.929002         3.692267
 H         0.360929         0.903233         2.533127
 H        -1.359412         0.523820         2.582286
 H        -2.392923         4.267545         2.159223
 H        -2.709107         0.891579         0.048053
 H        -1.912409         2.267802        -0.862839
