19
Iteration:    33
 O        -0.344664         0.351597        -0.228648
 C        -0.635472         1.372718         0.640192
 C         0.343779         2.573625         0.868046
 C        -0.359223         3.401185         1.808774
 C        -1.130644         2.513534         2.722719
 C        -0.999043         1.122516         2.190423
 C        -1.853701         3.482375         1.761565
 O        -2.487613         3.026780         0.608587
 C        -1.846506         1.938215        -0.028252
 H         0.451872        -0.154785        -0.011319
 H         1.250804         2.184273         1.433616
 H         0.738336         3.087360         0.033870
 H         0.160360         4.299366         2.125950
 H        -1.248090         2.651576         3.782066
 H        -0.372549         0.496827         2.848813
 H        -1.966939         0.726824         2.180422
 H        -2.323689         4.410154         1.926258
 H        -2.493527         1.167474        -0.254091
 H        -1.350763         2.286707        -0.919502
