19
Iteration:   227
 O        -0.111895         0.287685        -0.094394
 C        -0.707102         1.354912         0.610952
 C         0.337938         2.595756         0.776002
 C        -0.317151         3.435687         1.907558
 C        -1.133120         2.428687         2.639732
 C        -1.000416         1.033708         2.143967
 C        -1.830136         3.579437         1.796895
 O        -2.499598         3.153338         0.522841
 C        -2.041496         1.974810        -0.037645
 H         0.670142         0.080525         0.466043
 H         1.164923         2.159810         1.245998
 H         0.430974         3.010198        -0.221683
 H         0.386629         3.909599         2.472399
 H        -1.369538         2.521288         3.734435
 H        -0.220151         0.456843         2.597499
 H        -1.931464         0.463023         2.205283
 H        -2.356932         4.364712         2.401279
 H        -2.854127         1.186402         0.117132
 H        -2.068837         2.022896        -1.140779
