19
Iteration:  1541charge 0 multiplicity 1
 O        -0.327522         0.273751        -0.218845
 C        -0.643792         1.408010         0.671405
 C         0.430939         2.609516         0.861742
 C        -0.329924         3.510106         1.917308
 C        -1.258000         2.486028         2.669147
 C        -0.926571         1.079197         2.171497
 C        -1.829890         3.442330         1.726384
 O        -2.485939         3.076698         0.536911
 C        -1.917942         1.934432        -0.001270
 H         0.387640        -0.220665         0.226201
 H         1.412995         2.391281         1.221208
 H         0.556171         3.043854        -0.161789
 H         0.036714         4.472129         2.405531
 H        -1.319809         2.501421         3.777457
 H         0.014899         0.631354         2.600273
 H        -1.702083         0.392544         2.381110
 H        -2.467063         4.112804         2.134676
 H        -2.808643         1.295405         0.011182
 H        -1.630760         2.199038        -1.096146
