19
Iteration:  3927charge 0 multiplicity 1
 O        -0.217651         0.273094        -0.062064
 C        -0.660379         1.415208         0.605147
 C         0.143294         2.762723         0.409238
 C        -0.313495         3.609710         1.562871
 C        -0.866955         2.683046         2.678569
 C        -0.679822         1.281620         2.150623
 C        -1.784924         3.423375         1.869301
 O        -2.734132         2.724998         0.913780
 C        -2.090869         1.735527         0.118976
 H        -0.281320        -0.558271         0.441871
 H         1.301756         2.640260         0.401126
 H        -0.101681         3.161942        -0.589150
 H         0.120202         4.598776         1.813533
 H        -0.757805         2.763964         3.753023
 H         0.359422         0.964244         2.321765
 H        -1.490493         0.635236         2.548116
 H        -2.471957         4.187544         2.471110
 H        -2.570031         0.771859         0.250712
 H        -2.078148         1.984680        -0.977544
