19
Iteration:  4915
 O        -0.203773         0.295501         0.002080
 C        -0.679285         1.395577         0.653577
 C         0.261878         2.612656         0.493517
 C        -0.395847         3.599633         1.543391
 C        -0.884442         2.552879         2.623219
 C        -0.681367         1.204473         2.111544
 C        -1.872156         3.441756         1.857479
 O        -2.742661         2.924519         0.818723
 C        -2.094784         1.840894         0.107783
 H         0.213249        -0.244945         0.713005
 H         1.176175         2.117653         0.820899
 H         0.533268         3.028751        -0.488883
 H         0.125637         4.555216         1.730266
 H        -0.628434         2.567871         3.709583
 H         0.269554         0.899869         2.407647
 H        -1.499266         0.451477         2.411288
 H        -2.509900         4.093008         2.555576
 H        -2.779771         1.082209         0.027066
 H        -1.849011         2.214361        -0.910955
