19
Iteration:  1121charge 0 multiplicity 1
 O        -0.133482         0.286617        -0.073465
 C        -0.658333         1.377275         0.658296
 C         0.349155         2.697033         0.740858
 C        -0.267514         3.397125         1.899181
 C        -1.176208         2.517730         2.662845
 C        -1.029628         1.085452         2.058038
 C        -1.819708         3.417256         1.790624
 O        -2.558509         3.112109         0.632477
 C        -1.988808         1.874651        -0.096438
 H         0.490934        -0.199289         0.456446
 H         1.439831         2.427677         0.881429
 H         0.253289         3.405159        -0.115277
 H         0.166616         4.382796         2.439917
 H        -1.413681         2.533716         3.738498
 H        -0.284207         0.440400         2.656476
 H        -1.984316         0.635363         2.182229
 H        -2.212881         4.308315         2.210330
 H        -2.778098         1.168472        -0.096752
 H        -1.744915         2.178739        -1.069927
