19
Iteration:  2528charge 0 multiplicity 1
 O        -0.138597         0.220417         0.037615
 C        -0.671584         1.484394         0.502627
 C         0.306252         2.779003         0.607389
 C        -0.300486         3.564268         1.793229
 C        -1.084786         2.432443         2.642007
 C        -0.815442         1.062983         2.125144
 C        -1.783921         3.485705         1.778976
 O        -2.504794         3.026915         0.627533
 C        -2.196575         1.824792         0.131421
 H        -0.780846        -0.440423         0.399921
 H         1.344795         2.405587         0.769812
 H         0.360564         3.381447        -0.356714
 H         0.220459         4.487306         2.182025
 H        -1.246225         2.553002         3.739779
 H         0.080166         0.576821         2.609069
 H        -1.727760         0.462014         2.203034
 H        -2.450412         4.156757         2.235610
 H        -2.891290         1.063934         0.435830
 H        -2.278655         1.855660        -1.039558
