19
Iteration:   855charge 0 multiplicity 1
 O        -0.154258         0.322765        -0.174245
 C        -0.731795         1.343974         0.676991
 C         0.301213         2.538237         0.820518
 C        -0.258483         3.464508         1.878949
 C        -1.183630         2.538418         2.706441
 C        -1.033619         1.093045         2.101292
 C        -1.818101         3.444395         1.729614
 O        -2.583260         3.041551         0.623958
 C        -1.884819         1.977793        -0.048972
 H         0.665686        -0.033224         0.131733
 H         1.277100         2.226279         1.238206
 H         0.386196         3.087658        -0.144638
 H         0.242332         4.315256         2.330162
 H        -1.429660         2.732013         3.828031
 H        -0.105629         0.668568         2.515392
 H        -1.917373         0.524983         2.416774
 H        -2.402490         4.331506         2.233915
 H        -2.634866         1.269154        -0.438419
 H        -1.209292         2.302036        -0.897283
