19
Iteration:  1531charge 0 multiplicity 1
 O        -0.276168         0.265867        -0.186674
 C        -0.594756         1.365323         0.662485
 C         0.383176         2.567432         0.881464
 C        -0.316013         3.515697         1.850490
 C        -1.223976         2.446412         2.610701
 C        -0.931957         1.061617         2.122595
 C        -1.893076         3.524815         1.728742
 O        -2.558717         3.091904         0.617022
 C        -1.908884         1.998453        -0.002784
 H         0.460717        -0.199146         0.298011
 H         1.264991         2.093261         1.323716
 H         0.773300         2.977849        -0.068528
 H         0.222173         4.353450         2.440586
 H        -1.515709         2.664998         3.635639
 H        -0.077260         0.787960         2.708304
 H        -1.702551         0.327652         2.195472
 H        -2.261587         4.303407         2.245436
 H        -2.417426         1.004222         0.010359
 H        -1.803722         2.268579        -1.135009
