19
Iteration:  2492
 O        -0.138879         0.328482        -0.167741
 C        -0.728460         1.309322         0.718448
 C         0.086281         2.636377         0.549449
 C        -0.249239         3.420364         1.812407
 C        -1.076107         2.534389         2.710736
 C        -0.852412         1.069813         2.310538
 C        -1.838881         3.519531         1.778816
 O        -2.452691         3.096393         0.539935
 C        -2.065632         1.855379         0.065566
 H         0.616840         0.023280         0.386462
 H         1.218341         2.477290         0.509657
 H        -0.211930         3.210538        -0.305558
 H         0.403302         4.228643         2.191158
 H        -1.078373         2.799138         3.831843
 H        -0.054387         0.541824         2.910513
 H        -1.756234         0.392195         2.435635
 H        -2.421713         4.384945         2.281222
 H        -2.865401         1.077804         0.247633
 H        -1.922239         1.984989        -1.010913
