19
Iteration:  4860charge 0 multiplicity 1
 O        -0.232946         0.331003        -0.182512
 C        -0.621443         1.411881         0.672884
 C         0.232876         2.624854         0.559831
 C        -0.337916         3.580601         1.523180
 C        -0.857938         2.688736         2.711062
 C        -0.940839         1.214896         2.170608
 C        -1.813687         3.487354         1.736989
 O        -2.664764         2.746891         0.955754
 C        -2.025688         1.772178         0.131014
 H         0.588390        -0.082532         0.130895
 H         1.260143         2.361301         0.710119
 H         0.125924         3.095200        -0.410568
 H         0.342118         4.410232         1.754994
 H        -0.759872         2.998206         3.721676
 H        -0.269627         0.620976         2.699860
 H        -1.923282         0.628601         2.309972
 H        -2.262717         4.359125         2.190005
 H        -2.591491         0.906367         0.192192
 H        -2.009486         2.143553        -0.939759
