19
Iteration:  4163charge 0 multiplicity 1
 O        -0.240470         0.211771         0.026321
 C        -0.629262         1.436520         0.600911
 C         0.079622         2.761470         0.385952
 C        -0.359148         3.555533         1.585951
 C        -0.878173         2.656810         2.723030
 C        -0.634501         1.208766         2.194016
 C        -1.785006         3.535119         1.819075
 O        -2.659404         2.801298         0.857269
 C        -2.093055         1.654956         0.177054
 H         0.007227         0.292424        -0.925522
 H         1.190475         2.829640         0.317725
 H        -0.329448         3.285604        -0.586760
 H         0.153521         4.533787         1.677815
 H        -0.794854         2.961781         3.771386
 H         0.291652         0.621826         2.495611
 H        -1.521041         0.660568         2.277084
 H        -2.458682         4.332966         2.328955
 H        -2.755443         0.745549         0.380025
 H        -2.024817         1.864181        -0.895191
