19
Iteration:  4130charge 0 multiplicity 1
 O        -0.191395         0.233938         0.029924
 C        -0.653760         1.437873         0.592264
 C         0.306007         2.668033         0.451247
 C        -0.399039         3.549988         1.500265
 C        -0.906634         2.640406         2.655312
 C        -0.526166         1.267352         2.095487
 C        -1.876204         3.466701         1.832127
 O        -2.761530         2.865663         0.890138
 C        -2.288149         1.700283         0.201580
 H         0.427718         0.342836        -0.703065
 H         1.266666         2.370721         0.923019
 H         0.400338         3.240128        -0.578869
 H         0.214836         4.489030         1.715723
 H        -0.761987         3.026484         3.669975
 H         0.520873         0.873966         2.423104
 H        -1.157266         0.544997         2.534271
 H        -2.445618         4.196155         2.548643
 H        -2.891341         0.748020         0.465152
 H        -2.444193         1.858315        -0.856536
