19
Iteration:  3291
 O        -0.240341         0.254553        -0.060238
 C        -0.696652         1.408573         0.668922
 C         0.242862         2.575344         0.631983
 C        -0.290090         3.606126         1.667470
 C        -0.987516         2.628569         2.659624
 C        -0.646459         1.183357         2.189379
 C        -1.905088         3.363952         1.778934
 O        -2.725512         2.859081         0.834630
 C        -1.977711         1.905407         0.007197
 H        -0.394476         0.377267        -1.013937
 H         1.321408         2.191955         0.658241
 H         0.056783         2.984821        -0.434465
 H         0.282803         4.518833         2.090983
 H        -1.095240         2.767909         3.761972
 H         0.403378         0.925348         2.468606
 H        -1.352911         0.479898         2.612367
 H        -2.384881         4.281238         2.172587
 H        -2.879127         1.294668        -0.218396
 H        -1.615029         2.352693        -0.923869
