19
Iteration:  4917
 O        -0.201408         0.290591        -0.009440
 C        -0.659048         1.401156         0.658983
 C         0.264583         2.619504         0.496611
 C        -0.408061         3.607845         1.518324
 C        -0.893729         2.554974         2.620831
 C        -0.687078         1.200581         2.135779
 C        -1.862061         3.436097         1.870979
 O        -2.745254         2.944202         0.813771
 C        -2.099291         1.827193         0.113686
 H         0.239010        -0.268234         0.661216
 H         1.141104         2.055093         0.835965
 H         0.545653         3.013237        -0.435926
 H         0.192969         4.497722         1.737870
 H        -0.626282         2.610838         3.755905
 H         0.358058         0.942906         2.342938
 H        -1.539905         0.353455         2.390365
 H        -2.564214         4.037945         2.550638
 H        -2.865530         1.066310         0.027494
 H        -1.841463         2.227870        -0.923633
