19
Iteration:   142
 O        -0.266309         0.360351        -0.122919
 C        -0.643994         1.445774         0.678679
 C         0.453550         2.512992         0.817547
 C        -0.255358         3.389752         1.813232
 C        -1.337919         2.443379         2.692523
 C        -0.939907         1.143303         2.111903
 C        -1.824857         3.468332         1.740466
 O        -2.555181         3.127884         0.585818
 C        -1.981539         1.899425        -0.040494
 H         0.486693        -0.084377         0.248694
 H         1.338698         1.853968         1.298574
 H         0.928311         2.901334        -0.029140
 H         0.153561         4.187994         2.308664
 H        -1.355183         2.721298         3.774758
 H         0.056849         0.859103         2.701756
 H        -1.588052         0.330936         2.142378
 H        -2.268783         4.356463         2.280590
 H        -2.774739         1.165563        -0.044035
 H        -1.716334         2.325699        -1.070241
