19
Iteration:  2401charge 0 multiplicity 1
 O        -0.153634         0.325558        -0.085262
 C        -0.736603         1.401884         0.666719
 C         0.272209         2.600819         0.591741
 C        -0.271837         3.354590         1.723547
 C        -1.047741         2.587395         2.824821
 C        -1.082108         1.225611         2.182459
 C        -1.819374         3.506405         1.871069
 O        -2.594607         2.885511         0.740196
 C        -1.873417         1.975209        -0.204582
 H        -0.112470        -0.512687         0.394673
 H         1.265283         2.161341         0.799160
 H         0.243657         3.176000        -0.402340
 H         0.322894         4.267212         2.014862
 H        -0.691653         2.710513         3.826178
 H        -0.223419         0.640601         2.586389
 H        -2.001319         0.610118         2.506916
 H        -2.335442         4.345188         2.279160
 H        -2.599599         1.093812        -0.464961
 H        -1.425876         2.367263        -1.092540
