19
Iteration:  2704charge 0 multiplicity 1
 O        -0.061216         0.323328        -0.132905
 C        -0.674792         1.372266         0.594680
 C         0.343881         2.626382         0.583864
 C        -0.313912         3.436922         1.712451
 C        -1.201214         2.591707         2.755102
 C        -0.758022         1.115266         2.154803
 C        -1.803531         3.481161         1.785699
 O        -2.525105         3.119448         0.577425
 C        -2.234143         1.743108         0.289518
 H        -0.705526        -0.107368        -0.728314
 H         1.192457         2.130474         0.983872
 H         0.393143         3.265943        -0.325032
 H         0.103540         4.320566         2.222529
 H        -1.226538         2.814445         3.823769
 H         0.284502         0.805316         2.495540
 H        -1.492935         0.314292         2.323929
 H        -2.327866         4.445453         2.233815
 H        -2.806310         0.962361         0.893511
 H        -2.555243         1.627196        -0.761781
