19
Iteration:  3922charge 0 multiplicity 1
 O        -0.247594         0.279250        -0.069104
 C        -0.623767         1.436432         0.593127
 C         0.211449         2.775092         0.440702
 C        -0.332723         3.651313         1.562348
 C        -0.849149         2.658711         2.652991
 C        -0.693611         1.292146         2.143106
 C        -1.832417         3.424126         1.869223
 O        -2.712476         2.724374         0.923742
 C        -2.113924         1.693218         0.112360
 H        -0.372608        -0.567646         0.361861
 H         1.273873         2.666594         0.500663
 H        -0.176832         3.183137        -0.508352
 H         0.139920         4.573292         1.882909
 H        -0.590618         2.802526         3.714784
 H         0.253960         0.781210         2.435579
 H        -1.457517         0.621622         2.634959
 H        -2.344518         4.209391         2.255665
 H        -2.592227         0.705582         0.354895
 H        -2.198428         1.850421        -0.996127
