19
Iteration:   746charge 0 multiplicity 1
 O        -0.179967         0.322634        -0.075126
 C        -0.709107         1.491238         0.637236
 C         0.392465         2.589357         0.839599
 C        -0.294665         3.454962         1.807474
 C        -1.173544         2.414823         2.632988
 C        -1.031879         0.973553         2.078858
 C        -1.784851         3.503037         1.793238
 O        -2.582893         3.135398         0.592670
 C        -1.994516         1.916946        -0.054267
 H         0.598550         0.058900         0.510002
 H         1.226748         2.244364         1.396599
 H         0.863187         3.058518        -0.021658
 H         0.270137         4.318881         2.340300
 H        -1.201302         2.387030         3.699628
 H        -0.136520         0.503058         2.501746
 H        -1.866177         0.342221         2.219171
 H        -2.290030         4.346084         2.118746
 H        -2.800740         1.175293        -0.008182
 H        -1.546144         2.175019        -1.073606
