19
Iteration:  3088
 O        -0.324565         0.249208        -0.050634
 C        -0.667299         1.477406         0.611179
 C         0.205357         2.770631         0.625749
 C        -0.309025         3.545604         1.744676
 C        -0.977265         2.510112         2.705961
 C        -0.838990         1.142243         2.100768
 C        -1.788949         3.485518         1.748661
 O        -2.597589         2.908460         0.770571
 C        -1.993060         1.787932         0.026152
 H         0.599602        -0.013762        -0.035152
 H         1.297024         2.380972         0.958582
 H         0.398568         3.181887        -0.353229
 H         0.126967         4.557101         2.087258
 H        -0.894309         2.566617         3.817528
 H         0.020787         0.619403         2.498173
 H        -1.574834         0.321353         2.165418
 H        -2.405107         4.304585         2.247532
 H        -2.560694         0.848068         0.206501
 H        -2.065137         2.136045        -1.073171
