19
Iteration:  4613
 O        -0.372797         0.289052        -0.094577
 C        -0.676395         1.422577         0.635700
 C         0.269970         2.661704         0.552631
 C        -0.285086         3.644422         1.670518
 C        -0.933039         2.661052         2.759951
 C        -0.865437         1.195623         2.209123
 C        -1.778083         3.457425         1.789468
 O        -2.609120         2.764348         0.820464
 C        -1.970792         1.761686         0.002946
 H         0.514122         0.253104        -0.471256
 H         1.316152         2.401833         0.644042
 H         0.166936         3.090434        -0.490883
 H         0.068422         4.683758         1.909755
 H        -1.076905         2.620944         3.795769
 H         0.014282         0.613153         2.686759
 H        -1.774310         0.811850         2.515928
 H        -2.474618         4.171753         2.206368
 H        -2.577107         0.833974        -0.054867
 H        -1.838934         2.063166        -0.998138
