19
Iteration:  1863
 O        -0.230389         0.248884        -0.112996
 C        -0.639734         1.409506         0.667442
 C         0.389357         2.572722         0.775898
 C        -0.356423         3.457185         1.826436
 C        -1.224813         2.406135         2.694938
 C        -0.991683         0.981899         2.180395
 C        -1.833592         3.517773         1.786182
 O        -2.504904         3.250723         0.556916
 C        -1.939660         1.939785        -0.074638
 H         0.535582        -0.101966         0.395168
 H         1.271975         2.147996         1.353381
 H         0.698607         3.111237        -0.115081
 H         0.070639         4.391170         2.223733
 H        -1.234789         2.577310         3.757156
 H        -0.132614         0.443880         2.640820
 H        -1.820416         0.202361         2.281992
 H        -2.348496         4.292765         2.160542
 H        -2.742860         1.258268        -0.221056
 H        -1.612130         2.328382        -1.073367
