19
Iteration:  3879charge 0 multiplicity 1
 O        -0.065374         0.417969        -0.206178
 C        -0.670866         1.387532         0.710388
 C         0.187884         2.610429         0.471112
 C        -0.349306         3.537007         1.482504
 C        -0.923955         2.712352         2.623734
 C        -0.560220         1.231293         2.264750
 C        -1.880280         3.459490         1.797032
 O        -2.738822         2.857399         0.939355
 C        -2.216435         1.650319         0.240884
 H        -0.753900        -0.281341        -0.278755
 H         1.309210         2.197528         0.482962
 H        -0.071396         2.834523        -0.598115
 H         0.107502         4.457226         1.838430
 H        -0.825152         2.904551         3.714823
 H         0.478028         1.153755         2.553241
 H        -1.248604         0.354020         2.638130
 H        -2.356494         4.265076         2.157721
 H        -2.879786         0.810525         0.399564
 H        -2.165251         1.899400        -0.923540
