19
Iteration:  1207
 O        -0.222271         0.344533        -0.172413
 C        -0.718864         1.444439         0.680805
 C         0.439425         2.545238         0.826695
 C        -0.285491         3.546987         1.793507
 C        -1.260027         2.505512         2.739664
 C        -1.073601         1.072922         2.091456
 C        -1.766334         3.461875         1.760463
 O        -2.551967         2.926057         0.688856
 C        -1.939189         1.975361        -0.115319
 H         0.646900         0.062843         0.097915
 H         1.407673         2.189163         1.277363
 H         0.800349         3.023761        -0.094137
 H         0.298381         4.522968         2.172588
 H        -1.261951         2.712315         3.843989
 H        -0.151253         0.704871         2.608353
 H        -1.817395         0.366649         2.329041
 H        -2.310627         4.299853         2.200681
 H        -2.550490         1.028988        -0.027020
 H        -1.668125         2.189744        -1.210746
