19
Iteration:  1210charge 0 multiplicity 1
 O        -0.242828         0.331316        -0.154299
 C        -0.704896         1.450063         0.656725
 C         0.439096         2.581198         0.820785
 C        -0.260801         3.554056         1.821797
 C        -1.256174         2.494129         2.721224
 C        -1.094259         1.090631         2.083668
 C        -1.762963         3.472162         1.776197
 O        -2.538962         2.901232         0.690903
 C        -1.941418         1.953390        -0.125294
 H         0.655771         0.101022         0.134974
 H         1.407595         2.183112         1.277950
 H         0.870369         3.071190        -0.084269
 H         0.315945         4.547459         2.114254
 H        -1.294406         2.787700         3.814260
 H        -0.158934         0.609724         2.552600
 H        -1.849974         0.336210         2.277401
 H        -2.402503         4.272415         2.271157
 H        -2.573932         1.094204        -0.071711
 H        -1.726686         2.186051        -1.144442
