19
Iteration:   479
 O        -0.217643         0.335916        -0.115325
 C        -0.691388         1.395277         0.638715
 C         0.324384         2.516434         0.853370
 C        -0.330278         3.489533         1.798446
 C        -1.307787         2.457970         2.686961
 C        -0.952039         0.993819         2.092309
 C        -1.822984         3.543176         1.790870
 O        -2.430131         3.143785         0.584871
 C        -1.961615         1.963464        -0.044664
 H         0.407947        -0.181389         0.449376
 H         1.280406         2.123191         1.255394
 H         0.609373         3.049312        -0.116927
 H         0.274284         4.181854         2.404887
 H        -1.316765         2.455935         3.753130
 H         0.057164         0.779530         2.446761
 H        -1.684292         0.087411         2.203852
 H        -2.257731         4.382697         2.210827
 H        -2.565659         1.098695        -0.053734
 H        -1.778719         2.100378        -1.072699
