19
Iteration:  4635
 O        -0.147682         0.266871        -0.122956
 C        -0.683887         1.404225         0.595761
 C         0.301451         2.625479         0.647186
 C        -0.322106         3.504672         1.573144
 C        -0.895247         2.670319         2.641246
 C        -0.923910         1.204272         2.141021
 C        -1.816826         3.480042         1.794889
 O        -2.725075         2.880022         0.904374
 C        -2.101550         1.766650         0.096919
 H         0.781133         0.425328        -0.392222
 H         1.259100         2.339079         1.109103
 H         0.593045         3.058229        -0.355468
 H         0.208541         4.363441         2.003527
 H        -0.785372         2.903371         3.676240
 H        -0.050943         0.602281         2.582384
 H        -1.835163         0.819045         2.425289
 H        -2.243983         4.404003         2.055396
 H        -2.790289         0.905097         0.228397
 H        -2.109279         2.013532        -0.919476
