19
Iteration:  2099charge 0 multiplicity 1
 O        -0.282127         0.267055        -0.028542
 C        -0.670503         1.415054         0.634827
 C         0.287512         2.551894         0.778216
 C        -0.337042         3.465100         1.765549
 C        -1.281647         2.382251         2.717249
 C        -0.949014         1.050644         2.132721
 C        -1.810709         3.479694         1.788572
 O        -2.415025         3.165427         0.578699
 C        -1.888212         2.008277        -0.094224
 H         0.577169        -0.014241         0.297282
 H         1.272370         2.173090         1.204045
 H         0.423939         3.042178        -0.235851
 H         0.281821         4.367680         2.129666
 H        -1.633278         2.445321         3.795061
 H         0.035492         0.618125         2.523058
 H        -1.752118         0.394498         2.435104
 H        -2.150369         4.377219         2.311986
 H        -2.653802         1.185582        -0.072660
 H        -1.688816         2.318248        -1.077063
