19
Iteration:  4712
 O        -0.382524         0.245873        -0.121655
 C        -0.627554         1.422650         0.617868
 C         0.257261         2.760290         0.533868
 C        -0.381787         3.601152         1.684506
 C        -0.937397         2.542790         2.666645
 C        -0.763369         1.204509         2.204196
 C        -1.845228         3.426740         1.809136
 O        -2.505701         2.921257         0.750003
 C        -2.057111         1.731915         0.108784
 H         0.457715        -0.187912         0.167732
 H         1.340130         2.608367         0.883708
 H         0.204462         3.231392        -0.508940
 H        -0.051642         4.588777         1.923829
 H        -0.987621         2.704807         3.762980
 H         0.165920         0.777206         2.716325
 H        -1.564967         0.606329         2.399061
 H        -2.459477         4.145688         2.336566
 H        -2.718932         0.890973         0.499483
 H        -2.148667         1.736799        -0.944567
