19
Iteration:   958
 O        -0.307617         0.267590        -0.180965
 C        -0.622923         1.465686         0.662136
 C         0.368375         2.653405         0.856667
 C        -0.361607         3.432927         1.882990
 C        -1.137268         2.520340         2.677036
 C        -0.986280         1.036636         2.100951
 C        -1.884359         3.520628         1.720289
 O        -2.500385         3.046623         0.600363
 C        -1.892677         1.912078        -0.015655
 H         0.541584        -0.170440         0.102594
 H         1.291587         2.300579         1.343102
 H         0.690549         3.188370        -0.027325
 H         0.155412         4.233135         2.535831
 H        -1.273924         2.714694         3.705006
 H        -0.117348         0.541965         2.573194
 H        -1.832872         0.386217         2.141582
 H        -2.433917         4.265928         2.183357
 H        -2.572334         0.992797         0.016811
 H        -1.560129         2.082171        -1.112404
