19
Iteration:  4836
 O        -0.187344         0.274195        -0.060336
 C        -0.698054         1.405444         0.672557
 C         0.330730         2.557737         0.550914
 C        -0.325305         3.574894         1.551171
 C        -0.879277         2.660172         2.630614
 C        -0.716857         1.205750         2.163244
 C        -1.918539         3.395997         1.835166
 O        -2.765823         2.892261         0.878864
 C        -2.168424         1.842145         0.056970
 H         0.790512         0.388307        -0.190985
 H         1.218445         2.085122         0.950116
 H         0.526442         2.867487        -0.535869
 H         0.232765         4.468073         1.931320
 H        -0.958712         2.928481         3.652410
 H         0.247953         0.811542         2.439029
 H        -1.423669         0.545212         2.615113
 H        -2.196333         4.373124         2.154812
 H        -2.835216         0.988309         0.118126
 H        -2.089628         2.228354        -0.958094
