19
Iteration:  4165charge 0 multiplicity 1
 O        -0.234175         0.218711         0.015280
 C        -0.640000         1.423556         0.599956
 C         0.073746         2.760336         0.381976
 C        -0.368894         3.554978         1.576448
 C        -0.866401         2.666488         2.727797
 C        -0.638888         1.217965         2.223280
 C        -1.791036         3.523581         1.822616
 O        -2.641243         2.807398         0.857336
 C        -2.086420         1.651785         0.166568
 H        -0.054775         0.341936        -0.931866
 H         1.153243         2.872459         0.296194
 H        -0.322840         3.247666        -0.561818
 H         0.153799         4.449625         1.699507
 H        -0.799203         3.002035         3.764871
 H         0.290599         0.608042         2.510172
 H        -1.593683         0.626950         2.270697
 H        -2.438334         4.283963         2.323118
 H        -2.783565         0.746336         0.358802
 H        -2.015971         1.867269        -0.865137
