19
Iteration:   725
 O        -0.283919         0.284354        -0.192978
 C        -0.639678         1.451661         0.613773
 C         0.365188         2.541284         0.835631
 C        -0.356297         3.446594         1.904413
 C        -1.216509         2.489962         2.755253
 C        -0.944342         1.166514         2.117172
 C        -1.826519         3.440726         1.794057
 O        -2.424582         3.095919         0.552041
 C        -1.974953         1.911803        -0.045662
 H         0.470473        -0.190695         0.191388
 H         1.341405         2.321477         1.180160
 H         0.473225         3.212354         0.031443
 H         0.294245         4.211082         2.359191
 H        -1.478237         2.660028         3.786407
 H        -0.159825         0.574409         2.630079
 H        -1.788730         0.550508         2.082102
 H        -2.540411         4.118383         2.110261
 H        -2.616545         1.022639         0.048609
 H        -1.776345         2.116686        -1.075295
