19
Iteration:   205
 O        -0.124184         0.331577        -0.062594
 C        -0.673408         1.410778         0.608884
 C         0.232943         2.665181         0.677177
 C        -0.224725         3.347051         1.945741
 C        -1.255365         2.475492         2.735779
 C        -1.151015         1.101293         2.082771
 C        -1.799167         3.441914         1.762502
 O        -2.345890         3.164991         0.599386
 C        -1.980000         1.854729        -0.007292
 H         0.607577        -0.121373         0.398770
 H         1.180331         2.252581         0.736724
 H        -0.068689         3.266410        -0.182849
 H         0.230733         4.289379         2.058287
 H        -1.376909         2.529098         3.831888
 H        -0.253441         0.638440         2.464334
 H        -1.899128         0.301960         2.031503
 H        -2.194337         4.342654         2.220754
 H        -2.754213         1.016151         0.089355
 H        -1.967395         2.048101        -1.110864
