19
Iteration:  2379charge 0 multiplicity 1
 O        -0.193386         0.254576        -0.098618
 C        -0.671485         1.403830         0.596133
 C         0.351389         2.580764         0.743692
 C        -0.287225         3.525959         1.762247
 C        -1.044575         2.567462         2.673939
 C        -1.040606         1.142009         2.077923
 C        -1.746094         3.515319         1.711464
 O        -2.590410         2.927127         0.810078
 C        -2.030647         1.932312        -0.027437
 H         0.627273        -0.019813         0.390779
 H         1.249484         2.038161         1.109203
 H         0.494990         3.162574        -0.240499
 H         0.265290         4.442234         2.204832
 H        -1.299191         2.734894         3.736703
 H        -0.459340         0.339254         2.607784
 H        -2.147972         0.769526         2.083345
 H        -2.335545         4.275142         2.250025
 H        -2.639427         0.951320        -0.237530
 H        -1.817158         2.444620        -0.950549
