19
Iteration:  3943
 O        -0.092636         0.276428        -0.048299
 C        -0.697924         1.435300         0.632181
 C         0.059609         2.655092         0.341179
 C        -0.378069         3.556316         1.550547
 C        -0.862767         2.623109         2.697205
 C        -0.593992         1.232893         2.175415
 C        -1.876700         3.446538         1.805658
 O        -2.710814         2.815212         0.983630
 C        -2.121941         1.819477         0.102190
 H         0.049424        -0.413696         0.657273
 H         1.034401         2.338689         0.420907
 H        -0.294478         3.176125        -0.566418
 H         0.203258         4.459884         1.699524
 H        -0.809018         2.975496         3.753005
 H         0.387759         0.756584         2.520993
 H        -1.203319         0.412156         2.564022
 H        -2.278700         4.315657         2.144395
 H        -2.945668         1.058247        -0.175661
 H        -1.862996         2.284042        -0.834098
