19
Iteration:  3443
 O        -0.232406         0.328672        -0.151640
 C        -0.680326         1.353877         0.689053
 C         0.203482         2.624453         0.555607
 C        -0.346940         3.583569         1.577712
 C        -0.902942         2.627522         2.688298
 C        -0.679815         1.167910         2.227005
 C        -1.857811         3.480199         1.719081
 O        -2.747917         2.821161         0.885979
 C        -2.060169         1.786116         0.100230
 H         0.723224         0.471591        -0.050973
 H         1.284648         2.290257         0.773620
 H         0.274999         3.078759        -0.454827
 H         0.204522         4.457475         1.870654
 H        -0.857735         2.847645         3.687965
 H         0.356872         0.864181         2.547239
 H        -1.472603         0.460552         2.579143
 H        -2.386213         4.239325         2.219970
 H        -2.884514         1.073802         0.038597
 H        -1.909747         2.384620        -0.847161
