19
Iteration:  2215charge 0 multiplicity 1
 O        -0.270638         0.185886         0.014339
 C        -0.634278         1.451807         0.642971
 C         0.311055         2.594333         0.758211
 C        -0.318104         3.472017         1.846652
 C        -1.172086         2.484263         2.643544
 C        -0.983164         1.105671         2.069476
 C        -1.786919         3.547407         1.759117
 O        -2.535150         3.062895         0.630962
 C        -1.841516         1.917803        -0.003819
 H        -0.637723         0.275160        -0.888460
 H         1.238298         2.313902         1.266982
 H         0.548848         3.143193        -0.149322
 H         0.246358         4.238087         2.375735
 H        -1.093341         2.677895         3.716437
 H        -0.021172         0.598952         2.309687
 H        -1.826882         0.303404         2.164422
 H        -2.447535         4.261456         2.230011
 H        -2.527932         1.083822        -0.080322
 H        -1.718469         2.301624        -1.064256
