19
Iteration:  3359charge 0 multiplicity 1
 O        -0.006353         0.381382        -0.163725
 C        -0.741505         1.377675         0.695493
 C         0.022517         2.681778         0.530961
 C        -0.289498         3.459558         1.723251
 C        -0.957504         2.545596         2.741544
 C        -0.741465         1.128249         2.189487
 C        -1.794192         3.491898         1.778607
 O        -2.571223         3.041400         0.696208
 C        -2.208294         1.696532         0.121689
 H         0.190699        -0.298542         0.550574
 H         1.079673         2.467677         0.396334
 H        -0.317261         3.261065        -0.389930
 H         0.283990         4.314162         1.935165
 H        -0.882392         2.745449         3.773051
 H         0.266088         0.712167         2.478606
 H        -1.491267         0.392134         2.456837
 H        -2.222801         4.434053         2.054314
 H        -2.905865         0.864757         0.543001
 H        -2.467657         1.830639        -0.899330
