19
Iteration:  3122charge 0 multiplicity 1
 O         0.044549         0.395875        -0.168153
 C        -0.682586         1.376716         0.668539
 C         0.077506         2.627636         0.509037
 C        -0.297812         3.415277         1.734691
 C        -1.050944         2.506001         2.735365
 C        -0.854661         1.108359         2.196542
 C        -1.808757         3.501123         1.831881
 O        -2.536966         3.110156         0.662640
 C        -2.163178         1.767977         0.152588
 H         0.019483        -0.443065         0.339940
 H         1.175282         2.199293         0.673804
 H        -0.057667         3.021229        -0.489685
 H         0.210147         4.355471         1.902838
 H        -0.961722         2.712453         3.774367
 H         0.060424         0.769291         2.625933
 H        -1.750482         0.438479         2.252664
 H        -2.356778         4.387919         2.241509
 H        -2.921601         1.056960         0.574036
 H        -2.395668         1.835915        -0.961020
