19
Iteration:  2327charge 0 multiplicity 1
 O        -0.212958         0.279621        -0.078746
 C        -0.748514         1.341374         0.699329
 C         0.150133         2.624878         0.726423
 C        -0.292052         3.554964         1.830310
 C        -1.074240         2.491853         2.687634
 C        -0.880757         1.076023         2.246047
 C        -1.772281         3.486883         1.769700
 O        -2.476824         3.048879         0.595988
 C        -1.970185         1.899556        -0.095103
 H        -0.705434         0.217385        -0.912852
 H         1.140885         2.291517         1.126971
 H         0.307273         3.041835        -0.216485
 H         0.361674         4.295640         2.317750
 H        -1.283977         2.667010         3.712292
 H         0.057915         0.674827         2.659378
 H        -1.531828         0.261890         2.634686
 H        -2.326636         4.315389         2.165623
 H        -2.650866         1.100770        -0.275815
 H        -1.509014         2.230839        -1.063720
