19
Iteration:  4849charge 0 multiplicity 1
 O        -0.202326         0.316675        -0.131599
 C        -0.701549         1.411385         0.612262
 C         0.319099         2.619046         0.539087
 C        -0.335734         3.544230         1.510159
 C        -0.893213         2.637987         2.690546
 C        -0.825824         1.185688         2.245552
 C        -1.775040         3.484383         1.778387
 O        -2.764706         2.824964         0.906249
 C        -2.099779         1.783325         0.124545
 H         0.739253         0.283676         0.087836
 H         1.231054         2.401523         1.036989
 H         0.531734         2.968878        -0.469005
 H        -0.016215         4.597567         1.576017
 H        -0.589321         2.808996         3.677829
 H        -0.050920         0.634714         2.675680
 H        -1.878966         0.725120         2.398222
 H        -2.313148         4.265602         2.268092
 H        -2.718322         0.951326         0.090690
 H        -1.961393         2.155659        -0.945362
