19
Iteration:  2567
 O        -0.136389         0.379140        -0.249877
 C        -0.701998         1.348385         0.718889
 C         0.278478         2.513344         0.640564
 C        -0.367347         3.523828         1.619800
 C        -1.080371         2.644016         2.746878
 C        -0.885705         1.112353         2.349173
 C        -1.821049         3.508658         1.711293
 O        -2.543239         2.907976         0.783794
 C        -1.980955         1.861506         0.020172
 H        -0.949111        -0.102676        -0.489040
 H         1.206449         2.069191         1.070697
 H         0.296719         3.004455        -0.299531
 H         0.271246         4.419485         1.821272
 H        -1.127172         3.063982         3.822616
 H         0.117842         0.808701         2.655299
 H        -1.631747         0.420291         2.805192
 H        -2.394095         4.332132         2.301218
 H        -2.712512         1.025275        -0.210866
 H        -1.723782         2.277545        -0.907706
