19
Iteration:  4754
 O        -0.001681         0.411752        -0.137478
 C        -0.748892         1.362618         0.674466
 C         0.182363         2.613155         0.522126
 C        -0.304101         3.473177         1.637244
 C        -1.073997         2.606815         2.690087
 C        -0.731817         1.127783         2.209342
 C        -1.760870         3.493857         1.777515
 O        -2.571569         2.990308         0.733282
 C        -2.272082         1.754908         0.187924
 H        -0.215102        -0.509175         0.129596
 H         1.287743         2.307995         0.631747
 H         0.028647         3.029061        -0.510116
 H         0.202989         4.407938         1.768054
 H        -0.881708         2.923644         3.696100
 H         0.337351         0.956332         2.454961
 H        -1.439774         0.409173         2.633884
 H        -2.298596         4.215012         2.330582
 H        -3.025474         0.930732         0.599861
 H        -2.538045         1.773752        -0.860163
