19
Iteration:   998charge 0 multiplicity 1
 O        -0.107184         0.388749        -0.100853
 C        -0.745918         1.426095         0.670539
 C         0.257719         2.559249         0.726804
 C        -0.317060         3.408170         1.874881
 C        -1.137010         2.446749         2.695347
 C        -1.059612         1.106598         2.147050
 C        -1.812020         3.443546         1.763038
 O        -2.499210         3.041696         0.601885
 C        -1.922657         1.950982        -0.078453
 H         0.646886         0.145266         0.436029
 H         1.259904         2.130889         0.984324
 H         0.408289         3.060858        -0.247823
 H         0.274370         4.106884         2.381559
 H        -1.257526         2.766120         3.757863
 H        -0.271262         0.430069         2.575496
 H        -1.986136         0.507028         2.260944
 H        -2.378398         4.399773         2.173121
 H        -2.742932         1.282607        -0.081357
 H        -1.645381         2.247851        -1.058874
