19
Iteration:  4809charge 0 multiplicity 1
 O        -0.279775         0.168498         0.011893
 C        -0.668640         1.405293         0.682323
 C         0.183401         2.762980         0.424229
 C        -0.369354         3.543330         1.681306
 C        -0.999396         2.560563         2.710894
 C        -0.647868         1.198352         2.159006
 C        -1.819430         3.501709         1.799312
 O        -2.638195         2.892184         0.810617
 C        -2.029497         1.778411         0.069460
 H         0.049645         0.295626        -0.907868
 H         1.241306         2.436780         0.671682
 H         0.048588         3.233777        -0.566885
 H         0.062658         4.493583         1.953846
 H        -1.003464         2.762488         3.805708
 H         0.403273         0.886319         2.493315
 H        -1.383525         0.434552         2.567518
 H        -2.137587         4.503175         2.149943
 H        -2.745861         0.900925         0.127845
 H        -1.878375         2.122837        -0.967518
