19
Iteration:  1109charge 0 multiplicity 1
 O        -0.099268         0.310657        -0.129227
 C        -0.663820         1.406314         0.634007
 C         0.248492         2.614482         0.727380
 C        -0.365163         3.448774         1.827272
 C        -1.193697         2.398054         2.751467
 C        -1.046137         1.063308         2.153399
 C        -1.795220         3.538291         1.730012
 O        -2.483312         3.065913         0.621376
 C        -1.948396         1.973739        -0.001295
 H         0.472246        -0.151323         0.516653
 H         1.272498         2.239311         1.050777
 H         0.333506         3.049845        -0.275700
 H         0.239094         4.406222         2.120145
 H        -1.267687         2.560123         3.793735
 H        -0.182066         0.491129         2.653489
 H        -1.878086         0.415208         2.075112
 H        -2.349904         4.260398         2.218482
 H        -2.693499         1.206923        -0.098647
 H        -1.690013         2.244363        -1.006264
