19
Iteration:  3658charge 0 multiplicity 1
 O        -0.330144         0.294571        -0.211974
 C        -0.597989         1.449027         0.623822
 C         0.389247         2.809709         0.478359
 C        -0.273842         3.631851         1.668087
 C        -0.936550         2.678550         2.659760
 C        -0.702545         1.231366         2.134540
 C        -1.876587         3.480091         1.791318
 O        -2.755608         2.742647         0.852245
 C        -2.142250         1.595036         0.277716
 H         0.341922        -0.255252         0.261265
 H         1.462119         2.442747         0.627246
 H         0.425665         3.216278        -0.573770
 H         0.158016         4.503863         2.168236
 H        -0.926239         2.757792         3.699275
 H         0.173439         0.832618         2.535713
 H        -1.429912         0.494651         2.504449
 H        -2.427412         4.444247         2.136798
 H        -2.623965         0.632584         0.436493
 H        -2.339295         1.883600        -0.851262
