19
Iteration:  3728
 O        -0.108100         0.210423         0.088325
 C        -0.694890         1.495785         0.572575
 C         0.186475         2.788344         0.330607
 C        -0.387300         3.566061         1.566605
 C        -0.865485         2.624737         2.686889
 C        -0.757857         1.244457         2.091306
 C        -1.820674         3.452506         1.853078
 O        -2.675041         2.724759         0.999883
 C        -2.132994         1.768260         0.145272
 H        -0.053384         0.213593        -0.885447
 H         1.315728         2.733001         0.367814
 H        -0.014176         3.260081        -0.638383
 H         0.050917         4.535953         1.742419
 H        -0.721883         2.780471         3.796335
 H         0.138822         0.628863         2.425671
 H        -1.619107         0.528308         2.262138
 H        -2.270436         4.332142         2.108316
 H        -2.814236         0.817129         0.200636
 H        -2.042734         1.974424        -0.930586
