19
Iteration:  1844charge 0 multiplicity 1
 O        -0.085183         0.389761        -0.101236
 C        -0.736433         1.378306         0.666856
 C         0.263150         2.491955         0.807937
 C        -0.280382         3.399455         1.926577
 C        -1.163431         2.487664         2.685811
 C        -1.072623         1.095177         2.077652
 C        -1.748726         3.473703         1.774174
 O        -2.469708         3.139880         0.504357
 C        -2.017964         1.938275        -0.045044
 H         0.475991        -0.075951         0.523515
 H         1.199443         2.105019         0.975850
 H         0.303389         3.045838        -0.140116
 H         0.448193         4.090143         2.398310
 H        -1.406065         2.620284         3.744565
 H        -0.269856         0.474601         2.480589
 H        -2.066255         0.553147         2.278620
 H        -2.208859         4.311178         2.330473
 H        -2.883933         1.263683         0.126724
 H        -1.865221         2.030636        -1.112211
