19
Iteration:  4479
 O        -0.258850         0.189089         0.081650
 C        -0.701698         1.491240         0.594885
 C         0.269793         2.643724         0.559075
 C        -0.354324         3.581806         1.684407
 C        -0.858527         2.545525         2.656136
 C        -0.633205         1.219796         2.021253
 C        -1.895610         3.375241         1.778502
 O        -2.651577         3.000298         0.714626
 C        -2.159980         1.822527         0.164514
 H         0.564735         0.252177        -0.415533
 H         1.243760         2.273579         0.940384
 H         0.399175         3.094294        -0.405206
 H        -0.061120         4.537719         1.965744
 H        -1.135177         2.569356         3.758621
 H         0.306175         0.667348         2.363276
 H        -1.460862         0.580486         2.329594
 H        -2.452186         4.145344         2.332296
 H        -2.750143         0.909803         0.563220
 H        -2.322791         1.840405        -0.881010
