19
Iteration:  2007
 O        -0.360767         0.140445        -0.143266
 C        -0.651649         1.379935         0.659328
 C         0.416263         2.639010         0.828766
 C        -0.380362         3.517507         1.878658
 C        -1.225914         2.449064         2.722141
 C        -0.910882         1.051114         2.151350
 C        -1.875896         3.464865         1.762976
 O        -2.470475         3.172112         0.535195
 C        -1.882303         2.005768        -0.017668
 H         0.619069         0.009740        -0.184846
 H         1.458103         2.273452         1.365113
 H         0.449857         3.059282        -0.187009
 H         0.212651         4.375206         2.193030
 H        -1.525409         2.407461         3.789671
 H        -0.064102         0.506603         2.578749
 H        -1.821032         0.322456         2.284297
 H        -2.296509         4.505900         2.071489
 H        -2.554430         1.191458        -0.249364
 H        -1.292139         2.320504        -0.968534
