19
Iteration:  4672charge 0 multiplicity 1
 O        -0.201554         0.231055        -0.026297
 C        -0.666456         1.369028         0.628302
 C         0.193579         2.687544         0.511516
 C        -0.348513         3.529959         1.617971
 C        -0.969066         2.559993         2.667019
 C        -0.779408         1.174899         2.226202
 C        -1.785860         3.465400         1.756351
 O        -2.679717         2.916829         0.831538
 C        -2.079120         1.845338         0.046794
 H         0.731577         0.356476        -0.219387
 H         1.203116         2.429044         0.611802
 H         0.065673         3.231801        -0.409429
 H         0.235676         4.334500         2.043036
 H        -0.971252         2.681757         3.809248
 H         0.163629         0.785948         2.624034
 H        -1.581505         0.477996         2.710720
 H        -2.130741         4.409453         2.269406
 H        -2.735347         1.005974        -0.022735
 H        -1.905029         2.384730        -0.952576
