19
Iteration:   404charge 0 multiplicity 1
 O        -0.151338         0.253372        -0.093057
 C        -0.706252         1.385854         0.629240
 C         0.348105         2.515959         0.780987
 C        -0.318849         3.399347         1.913436
 C        -1.225340         2.492690         2.715657
 C        -0.981191         1.041571         2.097968
 C        -1.844743         3.493502         1.788450
 O        -2.490841         3.241647         0.573307
 C        -2.026720         1.958860        -0.133094
 H         0.735630         0.112987         0.261578
 H         1.365006         2.158383         1.126174
 H         0.651674         3.136746        -0.080548
 H         0.260290         4.305125         2.350581
 H        -1.255620         2.564180         3.796047
 H        -0.053133         0.661550         2.566358
 H        -1.751953         0.308225         2.357937
 H        -2.289183         4.238945         2.380071
 H        -2.739136         1.103188         0.005481
 H        -1.828088         2.101797        -1.174316
