19
Iteration:  2696charge 0 multiplicity 1
 O        -0.072251         0.314895        -0.197088
 C        -0.657985         1.416648         0.631271
 C         0.382253         2.592097         0.663224
 C        -0.283934         3.470241         1.794072
 C        -1.157982         2.538791         2.713751
 C        -0.820375         1.177612         2.109879
 C        -1.812750         3.534936         1.746184
 O        -2.601967         3.088149         0.596070
 C        -2.220312         1.657685         0.282351
 H        -0.841337        -0.133533        -0.627130
 H         1.381608         2.277231         0.912848
 H         0.639982         3.107113        -0.348831
 H         0.288771         4.371358         2.122486
 H        -0.969452         2.887659         3.769960
 H         0.101502         0.957420         2.623075
 H        -1.488145         0.334531         2.339514
 H        -2.372214         4.440854         2.189966
 H        -2.804429         1.118181         0.958934
 H        -2.523680         1.595932        -0.826112
