19
Iteration:  1000charge 0 multiplicity 1
 O        -0.105122         0.399861        -0.093153
 C        -0.761665         1.404825         0.668242
 C         0.247537         2.569317         0.737775
 C        -0.318035         3.404836         1.857711
 C        -1.132543         2.437929         2.704236
 C        -1.053174         1.104619         2.154825
 C        -1.814587         3.453707         1.757574
 O        -2.500431         3.045710         0.591841
 C        -1.925778         1.957330        -0.081491
 H         0.678423         0.140833         0.458918
 H         1.239063         2.149598         0.958370
 H         0.382987         2.998245        -0.242393
 H         0.290958         4.132452         2.449866
 H        -1.144812         2.633574         3.744904
 H        -0.287462         0.431605         2.608347
 H        -1.939725         0.560166         2.274501
 H        -2.311621         4.351366         2.144048
 H        -2.739232         1.255719        -0.139940
 H        -1.615701         2.288859        -1.034143
