19
Iteration:  4311charge 0 multiplicity 1
 O        -0.025466         0.259861        -0.023026
 C        -0.666274         1.408166         0.609324
 C         0.291532         2.694114         0.426484
 C        -0.322343         3.594362         1.533475
 C        -1.001510         2.601017         2.647815
 C        -0.749251         1.203023         2.103489
 C        -1.778474         3.526451         1.792809
 O        -2.773419         2.884251         0.961455
 C        -2.168202         1.686875         0.227805
 H        -0.611372         0.180820        -0.811673
 H         1.365654         2.370429         0.559805
 H         0.255069         2.975555        -0.618757
 H         0.282995         4.520331         1.985167
 H        -1.054798         2.821814         3.723029
 H         0.131781         0.799648         2.583372
 H        -1.685431         0.475475         2.276544
 H        -2.155486         4.577937         2.197982
 H        -2.710504         0.649690         0.553854
 H        -2.530365         1.810571        -0.753381
