19
Iteration:  1458
 O        -0.200487         0.204507        -0.062342
 C        -0.566858         1.448775         0.565635
 C         0.350881         2.630475         0.738320
 C        -0.293217         3.406431         1.829648
 C        -1.168220         2.481614         2.734953
 C        -1.166984         1.149189         2.113099
 C        -1.873404         3.464176         1.810521
 O        -2.537590         2.988556         0.709920
 C        -1.858993         2.011947        -0.129118
 H         0.775484         0.115269         0.110914
 H         1.405285         2.409723         1.101483
 H         0.391234         3.205110        -0.203253
 H         0.274666         4.294622         2.238102
 H        -1.262228         2.686530         3.735736
 H        -0.457445         0.421411         2.507642
 H        -2.236548         0.672573         2.079273
 H        -2.139241         4.429434         2.175631
 H        -2.569900         1.216303        -0.193708
 H        -1.686989         2.400901        -1.074376
