19
Iteration:  3409
 O        -0.248783         0.224137        -0.064786
 C        -0.633374         1.400444         0.623097
 C         0.277319         2.730970         0.508740
 C        -0.380884         3.601877         1.690484
 C        -0.947653         2.584377         2.740990
 C        -0.671438         1.221370         2.078404
 C        -1.850402         3.450883         1.781778
 O        -2.688981         2.936593         0.750766
 C        -2.041924         1.694785         0.234028
 H        -0.482424         0.202971        -0.998254
 H         1.316640         2.479455         0.891711
 H         0.234427         3.470720        -0.271468
 H         0.059078         4.600577         1.962119
 H        -0.951681         2.624033         3.813271
 H         0.191159         0.700540         2.557913
 H        -1.465018         0.403236         2.207805
 H        -2.441048         4.230209         2.190046
 H        -2.619453         0.777489         0.502335
 H        -2.091359         1.778422        -0.921617
