19
Iteration:  1605
 O         0.003826         0.246552        -0.061969
 C        -0.664235         1.402534         0.616910
 C         0.250776         2.573117         0.701471
 C        -0.328402         3.353571         1.900639
 C        -1.282205         2.400070         2.688914
 C        -1.063617         1.039799         2.016771
 C        -1.794512         3.583952         1.760585
 O        -2.449187         3.245523         0.562928
 C        -2.082370         1.959550         0.063368
 H         0.764285         0.093956         0.484878
 H         1.322212         2.246279         0.833293
 H         0.410569         3.187844        -0.212502
 H         0.380313         4.093000         2.394998
 H        -1.163021         2.587217         3.792302
 H        -0.245523         0.479306         2.700838
 H        -1.913361         0.423839         2.103903
 H        -2.311913         4.349584         2.172910
 H        -2.669327         1.173223         0.532613
 H        -2.105595         1.807939        -1.018460
