19
Iteration:  3455charge 0 multiplicity 1
 O        -0.143575         0.311910        -0.158563
 C        -0.725483         1.424888         0.673488
 C         0.163972         2.637103         0.506268
 C        -0.364694         3.561762         1.576069
 C        -0.880610         2.654550         2.675346
 C        -0.760055         1.189857         2.201869
 C        -1.815911         3.463292         1.835456
 O        -2.748146         2.815905         0.939377
 C        -2.048477         1.805172         0.070477
 H         0.705422        -0.064533         0.155528
 H         1.236850         2.372612         0.835898
 H         0.023361         2.856069        -0.582846
 H         0.003861         4.534857         1.640749
 H        -0.767627         2.899421         3.659621
 H         0.060323         0.542992         2.543747
 H        -1.633835         0.639120         2.525847
 H        -2.197799         4.396194         2.216460
 H        -2.550721         0.901193        -0.188915
 H        -1.680912         2.093539        -0.964935
