19
Iteration:  3394
 O        -0.143943         0.242830        -0.052868
 C        -0.615952         1.459101         0.637915
 C         0.180566         2.808314         0.542213
 C        -0.345538         3.580565         1.672455
 C        -0.947044         2.539653         2.603939
 C        -0.727396         1.118596         2.169617
 C        -1.869001         3.438325         1.851970
 O        -2.573703         2.941050         0.717142
 C        -2.126778         1.712059         0.168093
 H        -0.909297         0.015521        -0.645623
 H         1.218839         2.634781         0.624519
 H        -0.047745         3.041118        -0.498950
 H         0.223220         4.431315         2.056089
 H        -0.912249         2.881762         3.715896
 H         0.313683         0.710624         2.509627
 H        -1.613032         0.481329         2.518839
 H        -2.420514         4.243220         2.432943
 H        -2.846415         0.933267         0.625781
 H        -2.333754         1.861995        -0.925821
