19
Iteration:  1846charge 0 multiplicity 1
 O        -0.090610         0.380657        -0.100610
 C        -0.744468         1.373884         0.672058
 C         0.264075         2.500307         0.827154
 C        -0.273330         3.410113         1.913630
 C        -1.153019         2.477688         2.693490
 C        -1.068932         1.078679         2.079617
 C        -1.768094         3.469196         1.754384
 O        -2.480421         3.157870         0.508884
 C        -2.009383         1.948448        -0.054722
 H         0.502643        -0.090171         0.533577
 H         1.263274         2.108291         0.977896
 H         0.318885         2.992467        -0.181139
 H         0.463110         4.078934         2.367229
 H        -1.426696         2.585552         3.762560
 H        -0.223320         0.519390         2.507413
 H        -2.013078         0.560428         2.241871
 H        -2.224853         4.341252         2.394247
 H        -2.866645         1.211759         0.135665
 H        -1.849110         2.043766        -1.115290
