19
Iteration:  1035charge 0 multiplicity 1
 O        -0.168215         0.221811        -0.117542
 C        -0.662930         1.401695         0.597910
 C         0.295824         2.615225         0.740174
 C        -0.341650         3.458797         1.851412
 C        -1.184318         2.482414         2.705084
 C        -1.006637         1.132274         2.132797
 C        -1.873117         3.438521         1.789912
 O        -2.488915         3.070601         0.627313
 C        -1.895380         2.010072        -0.045640
 H         0.723032         0.093796         0.296231
 H         1.222887         2.208789         1.142019
 H         0.368727         3.118583        -0.230897
 H         0.226832         4.199480         2.566969
 H        -1.330856         2.527676         3.777230
 H        -0.209936         0.526025         2.599383
 H        -1.973257         0.688760         2.203583
 H        -2.409023         4.175712         2.247504
 H        -2.592647         1.130133        -0.122084
 H        -1.727065         2.244724        -1.109038
