19
Iteration:   711
 O        -0.291504         0.283795        -0.279524
 C        -0.617110         1.375583         0.651322
 C         0.326365         2.722953         0.734078
 C        -0.291647         3.402985         1.935540
 C        -1.286723         2.493490         2.808740
 C        -1.031596         1.089691         2.251520
 C        -1.850354         3.457457         1.797725
 O        -2.392356         3.111382         0.527053
 C        -1.863937         1.861733        -0.033039
 H         0.437004        -0.245457         0.148686
 H         1.300960         2.328755         0.895064
 H         0.309146         3.214669        -0.280653
 H         0.150039         4.438817         2.230626
 H        -1.471677         2.552568         3.875318
 H        -0.204853         0.672109         2.775598
 H        -1.887531         0.356447         2.418996
 H        -2.122165         4.390689         2.220157
 H        -2.718684         1.180021        -0.028914
 H        -1.703260         2.003776        -1.180730
