19
Iteration:   581charge 0 multiplicity 1
 O        -0.208782         0.267576        -0.059620
 C        -0.647099         1.432591         0.596307
 C         0.436293         2.536590         0.841372
 C        -0.311161         3.445881         1.808243
 C        -1.225243         2.513094         2.633929
 C        -1.074629         1.086536         2.049620
 C        -1.800632         3.454099         1.781473
 O        -2.553060         3.029681         0.722358
 C        -1.945662         2.042580        -0.104021
 H         0.650493         0.063322         0.285285
 H         1.330763         2.105904         1.386936
 H         0.628703         3.001934        -0.143612
 H         0.310236         4.465114         2.157543
 H        -1.481822         2.516442         3.723170
 H        -0.170536         0.540663         2.517484
 H        -1.940714         0.405472         2.029801
 H        -2.243219         4.416909         2.211678
 H        -2.705985         1.273476        -0.211024
 H        -1.609616         2.376737        -1.051535
