19
Iteration:  4798
 O        -0.276730         0.181723         0.011597
 C        -0.623664         1.426240         0.619238
 C         0.188875         2.799857         0.462805
 C        -0.337022         3.595966         1.639886
 C        -0.947831         2.635728         2.715980
 C        -0.748218         1.142746         2.213652
 C        -1.858582         3.391948         1.821480
 O        -2.556620         2.909697         0.762097
 C        -2.016112         1.751526         0.133673
 H        -0.531948         0.281591        -0.926014
 H         1.318031         2.763377         0.264668
 H        -0.205409         3.266246        -0.469688
 H         0.177309         4.400713         2.117776
 H        -0.993200         2.727551         3.816019
 H         0.228811         0.749603         2.645742
 H        -1.574830         0.369107         2.307896
 H        -2.452433         4.287297         2.094697
 H        -2.776134         0.909830         0.251773
 H        -1.974816         1.905818        -0.955905
