19
Iteration:  2537
 O        -0.157972         0.242646        -0.015546
 C        -0.631601         1.482548         0.607618
 C         0.337544         2.707919         0.657652
 C        -0.305215         3.495127         1.777317
 C        -1.047234         2.508697         2.631936
 C        -0.828957         1.112048         2.116177
 C        -1.818068         3.447576         1.723619
 O        -2.631999         3.072424         0.649065
 C        -2.103917         1.789265         0.102155
 H        -0.949309        -0.347506         0.042939
 H         1.421646         2.345419         0.771995
 H         0.377297         3.332069        -0.212639
 H         0.300674         4.364636         2.196231
 H        -1.195231         2.750518         3.758217
 H         0.169715         0.657300         2.424069
 H        -1.587415         0.366586         2.454081
 H        -2.418960         4.180348         2.330856
 H        -2.764983         0.962563         0.501047
 H        -2.172511         1.892267        -1.011103
