19
Iteration:  2711charge 0 multiplicity 1
 O        -0.068473         0.325757        -0.076064
 C        -0.703947         1.392412         0.588803
 C         0.209730         2.638817         0.577927
 C        -0.351947         3.454978         1.699130
 C        -1.150331         2.526052         2.721335
 C        -0.724786         1.096649         2.200921
 C        -1.834768         3.480463         1.764078
 O        -2.448916         3.115547         0.593872
 C        -2.198447         1.808513         0.265579
 H        -0.612189        -0.061848        -0.760410
 H         1.308205         2.185904         0.817924
 H         0.269643         3.164078        -0.340056
 H         0.213697         4.282147         2.086090
 H        -1.392953         2.608915         3.766164
 H         0.267889         0.732447         2.499193
 H        -1.450783         0.301098         2.427407
 H        -2.175101         4.340143         2.175178
 H        -2.894095         1.069662         0.787903
 H        -2.425586         1.609246        -0.765662
