19
Iteration:  3490
 O        -0.107167         0.255809        -0.011609
 C        -0.685847         1.478357         0.596338
 C         0.212311         2.778455         0.434340
 C        -0.282890         3.593607         1.615063
 C        -0.873001         2.618571         2.633556
 C        -0.867953         1.219483         2.032645
 C        -1.763711         3.500904         1.844505
 O        -2.725415         2.651512         1.011922
 C        -2.079837         1.772483         0.052913
 H        -0.586209        -0.476088         0.414395
 H         1.305661         2.591510         0.619390
 H         0.247036         3.434144        -0.489168
 H         0.085591         4.559668         1.973212
 H        -0.825021         2.853566         3.755404
 H        -0.117650         0.627339         2.436542
 H        -1.825377         0.852511         2.150733
 H        -2.333001         4.436607         2.186569
 H        -2.585179         0.866620         0.175361
 H        -2.182059         2.241631        -0.937793
