19
Iteration:   512charge 0 multiplicity 1
 O        -0.267329         0.307042        -0.127333
 C        -0.633431         1.413319         0.667744
 C         0.418705         2.526260         0.843896
 C        -0.318326         3.389514         1.888060
 C        -1.146975         2.536286         2.696857
 C        -1.055668         1.085778         2.060732
 C        -1.863658         3.490188         1.787743
 O        -2.544446         3.071351         0.578067
 C        -1.878424         1.953644        -0.088051
 H         0.540775        -0.062084         0.193907
 H         1.401451         2.211083         1.130057
 H         0.380162         3.274030         0.016206
 H         0.171641         4.280267         2.373542
 H        -1.160150         2.593850         3.758545
 H        -0.276788         0.612039         2.654852
 H        -2.026673         0.456847         2.228587
 H        -2.277076         4.386404         2.092078
 H        -2.561092         1.126776        -0.112462
 H        -1.708016         2.385671        -1.044082
