19
Iteration:  4785
 O        -0.213448         0.238461        -0.029569
 C        -0.611524         1.414664         0.684598
 C         0.127037         2.777267         0.469278
 C        -0.306231         3.576104         1.717244
 C        -0.917130         2.558094         2.669204
 C        -0.790600         1.219201         2.148802
 C        -1.833150         3.459696         1.865430
 O        -2.553993         2.917863         0.654313
 C        -2.041321         1.686811         0.184959
 H        -0.858089         0.043280        -0.742141
 H         1.215423         2.702599         0.494732
 H        -0.227267         3.241262        -0.410215
 H         0.214759         4.526784         1.803149
 H        -0.780658         2.907673         3.628017
 H        -0.016439         0.598445         2.579340
 H        -1.874599         0.701929         2.419207
 H        -2.445920         3.944156         2.555308
 H        -2.577365         0.821074         0.556922
 H        -2.118830         1.765407        -0.955493
