19
Iteration:  2635charge 0 multiplicity 1
 O        -0.104968         0.168142         0.022433
 C        -0.686846         1.392673         0.582894
 C         0.235086         2.650545         0.558801
 C        -0.298500         3.524452         1.737223
 C        -0.956579         2.589120         2.693907
 C        -0.874866         1.149275         2.094173
 C        -1.855448         3.480747         1.795598
 O        -2.690229         2.916823         0.850857
 C        -1.999027         2.009652        -0.081925
 H        -0.493287        -0.621642         0.482701
 H         1.235818         2.297009         0.918212
 H         0.161609         3.088570        -0.367308
 H         0.299782         4.413748         1.956070
 H        -0.949060         2.882928         3.755071
 H         0.010548         0.522395         2.387457
 H        -1.802547         0.538170         2.150309
 H        -2.388391         4.168893         2.353583
 H        -2.815835         1.350890        -0.494790
 H        -1.533220         2.497616        -0.881713
