19
Iteration:  2601charge 0 multiplicity 1
 O        -0.125127         0.322593        -0.036486
 C        -0.634275         1.507063         0.591540
 C         0.388758         2.561388         0.597277
 C        -0.282485         3.411528         1.628669
 C        -0.972366         2.659979         2.719765
 C        -1.028283         1.245156         2.072134
 C        -1.851999         3.474562         1.778860
 O        -2.705765         2.785909         0.921811
 C        -1.957628         1.912367        -0.003958
 H        -0.819044        -0.361805         0.134615
 H         1.385705         2.130711         0.901895
 H         0.661045         3.016827        -0.309555
 H         0.144494         4.411853         1.886519
 H        -0.856945         2.830540         3.852946
 H        -0.317942         0.469191         2.417468
 H        -2.029453         0.754465         1.994560
 H        -2.464580         4.288613         2.201747
 H        -2.694299         1.066558        -0.155479
 H        -1.883561         2.449015        -0.899257
