19
Iteration:  2499
 O        -0.114656         0.291187        -0.121156
 C        -0.712199         1.378558         0.616563
 C         0.091221         2.621762         0.565711
 C        -0.295587         3.406256         1.815006
 C        -1.035895         2.518305         2.716420
 C        -0.909192         1.119037         2.233299
 C        -1.867892         3.528284         1.829112
 O        -2.414343         3.123698         0.552719
 C        -2.038622         1.822038         0.096489
 H         0.371832        -0.179377         0.562866
 H         1.126727         2.439157         0.464446
 H        -0.436696         3.205893        -0.242123
 H         0.362965         4.160532         2.111381
 H        -1.001098         2.717342         3.711964
 H         0.025838         0.764916         2.654501
 H        -1.725088         0.443863         2.492455
 H        -2.491932         4.225561         2.320215
 H        -2.845073         1.064310         0.310927
 H        -1.931559         1.852374        -0.977214
