19
Iteration:  1306
 O        -0.309857         0.318823        -0.217520
 C        -0.584470         1.475991         0.630189
 C         0.460657         2.607141         0.854078
 C        -0.302937         3.442459         1.864179
 C        -1.259320         2.526379         2.689333
 C        -1.012380         1.165349         2.149040
 C        -1.802631         3.428757         1.709054
 O        -2.501764         2.993842         0.597109
 C        -1.954935         1.911561         0.036215
 H         0.532389        -0.088540        -0.062666
 H         1.422553         2.318548         1.308416
 H         0.591212         3.046422        -0.146013
 H         0.198740         4.376637         2.439730
 H        -1.326107         2.518108         3.788048
 H        -0.390789         0.490843         2.821539
 H        -1.962772         0.557043         2.156656
 H        -2.393495         4.190821         2.244431
 H        -2.567747         0.925544         0.124625
 H        -1.881500         2.034668        -1.149214
