19
Iteration:   315charge 0 multiplicity 1
 O        -0.132275         0.307040        -0.001295
 C        -0.751142         1.430100         0.586890
 C         0.382733         2.503000         0.790202
 C        -0.277588         3.376126         1.729168
 C        -1.131081         2.486701         2.652420
 C        -1.147451         1.161380         2.033312
 C        -1.833952         3.449380         1.887577
 O        -2.572916         3.021423         0.713114
 C        -1.878355         2.055896        -0.127921
 H         0.538996         0.117069         0.691777
 H         1.318584         2.044366         1.198126
 H         0.754133         2.994339        -0.224427
 H         0.144319         4.036594         2.361837
 H        -0.751098         2.624379         3.765642
 H        -0.418632         0.485307         2.399583
 H        -2.168630         0.701713         1.871298
 H        -2.462275         4.401568         2.264503
 H        -2.601433         1.299141        -0.514971
 H        -1.666212         2.547505        -1.028069
