19
Iteration:   421
 O        -0.149282         0.305426        -0.086289
 C        -0.692040         1.397221         0.627977
 C         0.211471         2.615027         0.730607
 C        -0.264519         3.367081         1.916909
 C        -1.217077         2.441989         2.672777
 C        -1.067050         1.135047         2.062447
 C        -1.801989         3.522408         1.817746
 O        -2.390130         3.121396         0.548976
 C        -1.957463         1.910574         0.024838
 H         0.694231         0.033430         0.336154
 H         1.178604         2.197133         0.910387
 H         0.225883         3.162815        -0.260424
 H         0.396335         3.916050         2.495122
 H        -1.474131         2.504219         3.777989
 H        -0.344647         0.489605         2.573279
 H        -1.921901         0.336679         2.031981
 H        -2.428336         4.463015         2.119051
 H        -2.769168         1.206263         0.200174
 H        -1.691373         2.254191        -1.038372
