19
Iteration:  2599charge 0 multiplicity 1
 O        -0.123947         0.330061        -0.061549
 C        -0.636735         1.493506         0.613680
 C         0.378185         2.547416         0.608592
 C        -0.279588         3.426875         1.640483
 C        -0.960617         2.664166         2.725917
 C        -1.016160         1.241938         2.084244
 C        -1.847230         3.483200         1.771773
 O        -2.709675         2.779308         0.902799
 C        -1.966317         1.895903         0.003936
 H        -0.840152        -0.331581         0.091634
 H         1.363550         2.089721         0.889693
 H         0.652983         3.065455        -0.357210
 H         0.160313         4.420126         1.885313
 H        -0.841114         2.804044         3.866249
 H        -0.344016         0.494203         2.480029
 H        -2.048038         0.804629         2.038073
 H        -2.508913         4.351691         2.208738
 H        -2.684542         1.067800        -0.221751
 H        -1.858309         2.502989        -0.922351
