19
Iteration:  2097
 O        -0.275465         0.262120        -0.035808
 C        -0.665202         1.402771         0.635278
 C         0.273659         2.567998         0.765653
 C        -0.331074         3.459077         1.777534
 C        -1.283196         2.378279         2.739205
 C        -0.956212         1.060104         2.123832
 C        -1.818371         3.489800         1.801214
 O        -2.406567         3.176694         0.573451
 C        -1.874686         1.986010        -0.090678
 H         0.615107         0.007928         0.244464
 H         1.290871         2.196564         1.167775
 H         0.341491         2.970783        -0.244788
 H         0.236060         4.305248         2.078761
 H        -1.555063         2.496132         3.771258
 H        -0.057169         0.584217         2.572016
 H        -1.790490         0.419696         2.458679
 H        -2.187810         4.351121         2.261714
 H        -2.661457         1.219593        -0.056216
 H        -1.693965         2.361633        -1.091462
