19
Iteration:   900
 O        -0.153911         0.232917        -0.104641
 C        -0.662545         1.428048         0.657282
 C         0.342925         2.665433         0.797725
 C        -0.256124         3.487111         1.908848
 C        -1.165717         2.496435         2.676775
 C        -1.085743         1.124198         2.007413
 C        -1.803309         3.499252         1.812987
 O        -2.533345         3.065276         0.627297
 C        -1.946377         1.869484        -0.075965
 H         0.660689        -0.069240         0.275776
 H         1.311341         2.187990         1.036283
 H         0.275518         3.078384        -0.190812
 H         0.184258         4.220242         2.496310
 H        -1.399597         2.351730         3.763418
 H        -0.409978         0.441176         2.567685
 H        -2.038378         0.681484         1.886848
 H        -2.427785         4.358378         2.382298
 H        -2.681238         1.047733        -0.056228
 H        -1.786109         2.155056        -1.155047
