19
Iteration:  4159charge 0 multiplicity 1
 O        -0.244975         0.194540         0.042854
 C        -0.616475         1.454441         0.615246
 C         0.095579         2.774101         0.378503
 C        -0.329175         3.579656         1.603150
 C        -0.894449         2.636820         2.704177
 C        -0.622446         1.206735         2.124244
 C        -1.800279         3.538766         1.815224
 O        -2.694681         2.796022         0.860988
 C        -2.103127         1.668264         0.202296
 H         0.104733         0.227643        -0.853114
 H         1.205655         2.672029         0.364221
 H        -0.264383         3.274695        -0.498266
 H         0.136790         4.613946         1.680749
 H        -0.768301         2.853964         3.767476
 H         0.241615         0.726813         2.481303
 H        -1.513558         0.558910         2.389007
 H        -2.357826         4.320528         2.242787
 H        -2.645976         0.793464         0.412291
 H        -2.096073         1.852481        -0.952647
