19
Iteration:  1539
 O        -0.322641         0.268019        -0.220159
 C        -0.632095         1.397050         0.668111
 C         0.418406         2.602219         0.870084
 C        -0.317197         3.524191         1.914783
 C        -1.259314         2.478518         2.645191
 C        -0.932344         1.081943         2.168542
 C        -1.835446         3.447177         1.717238
 O        -2.497102         3.068009         0.543833
 C        -1.914860         1.960898         0.005352
 H         0.411055        -0.204194         0.272141
 H         1.436711         2.369067         1.209519
 H         0.632816         2.985462        -0.153678
 H         0.019534         4.451547         2.409640
 H        -1.327967         2.502276         3.806470
 H         0.062948         0.617045         2.630296
 H        -1.702516         0.354849         2.366298
 H        -2.492488         4.189428         2.203804
 H        -2.793149         1.277725         0.036476
 H        -1.694931         2.238218        -1.049606
