19
Iteration:   253charge 0 multiplicity 1
 O        -0.307906         0.336301        -0.191251
 C        -0.678928         1.411377         0.665354
 C         0.417218         2.535953         0.845488
 C        -0.368242         3.440563         1.794278
 C        -1.255673         2.460053         2.779407
 C        -0.955037         1.149274         2.144050
 C        -1.808047         3.442502         1.778396
 O        -2.476174         3.089516         0.549633
 C        -1.902817         1.941863        -0.014379
 H         0.594273         0.068970         0.112363
 H         1.322054         2.092350         1.320233
 H         0.551152         2.941875        -0.120664
 H         0.147299         4.399698         2.177732
 H        -1.398703         2.543135         3.860349
 H        -0.129340         0.540490         2.682187
 H        -1.801449         0.463910         2.130134
 H        -2.104607         4.407456         2.210773
 H        -2.684567         1.113890        -0.108359
 H        -1.572700         2.100056        -1.123588
