19
Iteration:  4891
 O        -0.242429         0.211867        -0.110936
 C        -0.623812         1.427778         0.610425
 C         0.219894         2.761709         0.486658
 C        -0.294663         3.548659         1.621510
 C        -0.934488         2.672199         2.772560
 C        -0.855115         1.240339         2.202154
 C        -1.773355         3.468819         1.761013
 O        -2.672244         2.741814         0.927286
 C        -2.064009         1.802379         0.005258
 H         0.094420        -0.396262         0.573688
 H         1.271133         2.461574         0.400598
 H         0.068592         3.425168        -0.448471
 H         0.315534         4.425420         1.885013
 H        -0.860612         2.965603         3.770813
 H         0.070125         0.792886         2.586953
 H        -1.630053         0.562148         2.351329
 H        -2.303139         4.330056         2.144252
 H        -2.705517         0.931705        -0.057412
 H        -2.016878         2.229696        -0.983625
