19
Iteration:  1462
 O        -0.193260         0.198903        -0.065721
 C        -0.577412         1.455281         0.587672
 C         0.323700         2.630600         0.726329
 C        -0.288264         3.427170         1.839076
 C        -1.141266         2.496432         2.744637
 C        -1.218426         1.132338         2.090529
 C        -1.862633         3.479310         1.818202
 O        -2.512682         2.952557         0.703814
 C        -1.847344         2.013507        -0.118305
 H         0.754657         0.133778         0.112812
 H         1.380957         2.443070         0.903921
 H         0.393293         3.227410        -0.180231
 H         0.081234         4.246778         2.356671
 H        -1.127473         2.502249         3.880755
 H        -0.439754         0.435716         2.549726
 H        -2.209574         0.776578         2.080054
 H        -2.155075         4.561266         2.023715
 H        -2.640145         1.231310        -0.234586
 H        -1.638642         2.453247        -1.163705
