19
Iteration:  1302charge 0 multiplicity 1
 O        -0.295532         0.321636        -0.212849
 C        -0.602517         1.477545         0.594324
 C         0.480760         2.611578         0.845344
 C        -0.301208         3.415994         1.865668
 C        -1.254585         2.528111         2.721581
 C        -0.991462         1.196055         2.190547
 C        -1.818473         3.424489         1.731660
 O        -2.535573         2.991213         0.595646
 C        -1.952626         1.906145        -0.011510
 H         0.564236        -0.155906        -0.084556
 H         1.408316         2.241094         1.298626
 H         0.780701         3.006464        -0.154232
 H         0.125619         4.262204         2.431331
 H        -1.359651         2.555073         3.855411
 H        -0.366956         0.492179         2.732559
 H        -2.025258         0.625280         2.029969
 H        -2.289914         4.308982         2.189177
 H        -2.620623         1.041229         0.159830
 H        -1.874233         1.963406        -1.049325
