19
Iteration:  1960
 O        -0.081541         0.267747        -0.083444
 C        -0.701085         1.362812         0.598285
 C         0.393818         2.570618         0.838726
 C        -0.285603         3.374974         1.826876
 C        -1.147480         2.521580         2.672760
 C        -1.223141         1.107450         2.071904
 C        -1.734618         3.525947         1.745972
 O        -2.593080         3.001976         0.724224
 C        -1.917830         2.077105        -0.113790
 H         0.570093        -0.227081         0.454256
 H         1.248092         1.965336         1.177384
 H         0.585238         3.087919        -0.095733
 H        -0.026668         4.414412         2.154887
 H        -1.217312         2.739683         3.744458
 H        -0.515863         0.447838         2.622423
 H        -2.195008         0.652273         2.067242
 H        -2.261726         4.317532         2.158773
 H        -2.658542         1.315168        -0.333899
 H        -1.574806         2.543008        -1.098411
