19
Iteration:  2067
 O        -0.157946         0.262269        -0.125562
 C        -0.698946         1.385315         0.621961
 C         0.248490         2.697483         0.774244
 C        -0.203262         3.408992         1.966671
 C        -1.141184         2.459863         2.691336
 C        -1.215219         1.086419         2.167904
 C        -1.795098         3.529397         1.773565
 O        -2.355927         3.101826         0.518226
 C        -1.970831         1.822578        -0.026688
 H         0.811204         0.396401        -0.245093
 H         1.315633         2.413253         0.741411
 H         0.087594         3.271888        -0.193919
 H         0.521485         4.131716         2.531752
 H        -1.491319         2.663338         3.738563
 H        -0.616369         0.316985         2.718448
 H        -2.240577         0.856982         2.360110
 H        -2.317221         4.428463         2.093604
 H        -2.776874         1.063579         0.193643
 H        -1.983781         2.008136        -1.060292
