19
Iteration:   393
 O        -0.225436         0.265617        -0.118170
 C        -0.676741         1.368615         0.650848
 C         0.422862         2.621272         0.864060
 C        -0.348732         3.410195         1.825216
 C        -1.167453         2.393642         2.707512
 C        -0.991961         1.078440         2.175191
 C        -1.782832         3.444180         1.755427
 O        -2.511559         3.187780         0.544242
 C        -2.025292         1.988918        -0.080015
 H         0.733195         0.039025         0.101296
 H         1.226263         2.071860         1.416161
 H         0.663292         3.057113        -0.126905
 H        -0.064103         4.431040         2.282595
 H        -1.419434         2.531484         3.760361
 H        -0.035410         0.661474         2.580149
 H        -1.762609         0.309982         2.266861
 H        -2.220813         4.350741         2.080816
 H        -2.963497         1.331510        -0.131927
 H        -1.758937         2.359288        -1.038359
