19
Iteration:  2179charge 0 multiplicity 1
 O         0.049213         0.280358         0.028183
 C        -0.701801         1.430688         0.597188
 C         0.291549         2.522306         0.722440
 C        -0.249532         3.340248         1.838097
 C        -1.050187         2.535583         2.794350
 C        -1.202349         1.143840         2.084602
 C        -1.758751         3.503853         1.741453
 O        -2.651533         3.053240         0.689836
 C        -1.978607         2.025160        -0.159826
 H        -0.590912        -0.399080        -0.231234
 H         1.211908         2.024941         0.931047
 H         0.441814         2.953723        -0.313062
 H         0.334136         4.188948         2.105573
 H        -1.027840         2.761365         3.841689
 H        -0.454839         0.429754         2.532191
 H        -2.211532         0.745920         2.152517
 H        -2.164400         4.336606         2.304371
 H        -2.681736         1.213360        -0.361876
 H        -1.648722         2.449080        -1.068607
