19
Iteration:   196
 O        -0.201767         0.345861        -0.100002
 C        -0.672187         1.409801         0.651541
 C         0.204222         2.708299         0.658696
 C        -0.242763         3.364743         1.962690
 C        -1.210498         2.465955         2.706765
 C        -1.142411         1.086903         2.138395
 C        -1.787075         3.436254         1.818764
 O        -2.301909         3.057583         0.536823
 C        -1.911034         1.898249        -0.039098
 H         0.470186        -0.077731         0.469860
 H         1.295422         2.495956         0.514816
 H        -0.057064         3.242762        -0.165012
 H         0.278474         4.199609         2.260689
 H        -1.650910         2.615688         3.742422
 H        -0.233125         0.563017         2.684215
 H        -2.030415         0.532930         2.192563
 H        -2.333924         4.342933         2.255784
 H        -2.744853         1.155136         0.267091
 H        -2.016323         2.092297        -1.196198
