19
Iteration:  4376
 O        -0.291757         0.176964        -0.007833
 C        -0.619466         1.413160         0.623032
 C         0.224344         2.712761         0.460356
 C        -0.356926         3.560109         1.612510
 C        -0.936514         2.625033         2.667308
 C        -0.668350         1.237133         2.115976
 C        -1.861527         3.475509         1.810191
 O        -2.710111         2.865590         0.866517
 C        -2.071753         1.773844         0.122600
 H         0.654367         0.026440        -0.241662
 H         1.367448         2.523402         0.499002
 H         0.086681         3.235378        -0.520327
 H         0.076250         4.467095         2.206861
 H        -0.749941         2.684078         3.744567
 H         0.321819         0.991294         2.461652
 H        -1.455931         0.438636         2.417194
 H        -2.309334         4.463791         2.208557
 H        -2.754687         0.848649         0.224133
 H        -1.970287         2.120089        -0.881530
