19
Iteration:    99charge 0 multiplicity 1
 O        -0.203610         0.295447        -0.136651
 C        -0.681912         1.367962         0.636529
 C         0.295085         2.613468         0.684769
 C        -0.324671         3.486653         1.828654
 C        -1.110207         2.524232         2.765955
 C        -1.250439         1.126723         2.129610
 C        -1.814230         3.470430         1.938809
 O        -2.433791         3.000905         0.639317
 C        -1.831053         1.911308        -0.146038
 H         0.637978         0.031534         0.304658
 H         1.386081         2.317653         1.014743
 H         0.553359         3.041284        -0.255230
 H         0.276034         4.260748         2.088226
 H        -1.109932         2.409880         3.856847
 H        -0.583027         0.412481         2.677900
 H        -2.229134         0.810761         2.078300
 H        -2.273243         4.409723         2.295135
 H        -2.602349         1.252218        -0.294260
 H        -1.483740         2.360303        -1.076693
