19
Iteration:     5
 O        -0.250248         0.319802        -0.133225
 C        -0.688089         1.393298         0.644960
 C         0.350501         2.560538         0.796932
 C        -0.299444         3.459864         1.868675
 C        -1.161597         2.483744         2.717038
 C        -1.067424         1.091862         2.132296
 C        -1.780835         3.470387         1.756330
 O        -2.488318         3.076818         0.614131
 C        -1.911496         1.956689        -0.070460
 H         0.565392        -0.079434         0.262933
 H         1.366939         2.319468         1.082463
 H         0.481355         2.956034        -0.276091
 H         0.108399         4.324364         2.345247
 H        -1.260317         2.758966         3.785991
 H        -0.236844         0.587363         2.625967
 H        -1.989712         0.395666         2.094576
 H        -2.505975         4.200285         2.173813
 H        -2.662287         1.074901        -0.027303
 H        -1.584282         2.183045        -1.121731
