19
Iteration:  1965charge 0 multiplicity 1
 O        -0.150976         0.283610        -0.093833
 C        -0.711614         1.365446         0.624045
 C         0.385307         2.594784         0.816759
 C        -0.241838         3.381456         1.882939
 C        -1.144270         2.537555         2.710254
 C        -1.177796         1.111356         2.075409
 C        -1.739033         3.485319         1.754548
 O        -2.594756         2.976928         0.674308
 C        -1.876093         2.056263        -0.137464
 H         0.448853        -0.098678         0.560789
 H         1.342257         1.989307         1.150470
 H         0.635701         3.148739        -0.119757
 H        -0.003494         4.379479         2.168799
 H        -1.300627         2.682245         3.780178
 H        -0.428750         0.493680         2.572507
 H        -2.254479         0.691430         2.037136
 H        -2.378306         4.401062         2.071118
 H        -2.688934         1.310252        -0.333535
 H        -1.607895         2.503377        -1.100945
