19
Iteration:  2218
 O        -0.292817         0.191903        -0.022478
 C        -0.645016         1.421439         0.657468
 C         0.295638         2.589380         0.759694
 C        -0.328526         3.465060         1.843615
 C        -1.158455         2.481754         2.656254
 C        -0.947233         1.109484         2.109127
 C        -1.809028         3.543325         1.756217
 O        -2.530393         3.068768         0.611309
 C        -1.818784         1.910987         0.008539
 H        -0.572751         0.382318        -0.959170
 H         1.313861         2.342663         1.236991
 H         0.491782         3.212821        -0.097556
 H         0.297557         4.285646         2.419251
 H        -1.118802         2.681902         3.775053
 H        -0.011333         0.587032         2.414630
 H        -1.894968         0.442841         2.138552
 H        -2.454736         4.383459         2.166480
 H        -2.526955         1.052378        -0.078836
 H        -1.648813         2.255812        -1.128950
