19
Iteration:   960charge 0 multiplicity 1
 O        -0.301819         0.254411        -0.189131
 C        -0.615959         1.468849         0.675921
 C         0.377181         2.655275         0.854405
 C        -0.374619         3.432138         1.895603
 C        -1.137973         2.507714         2.659944
 C        -0.986459         1.054237         2.089326
 C        -1.875231         3.522470         1.724299
 O        -2.502673         3.040711         0.608317
 C        -1.902700         1.912474        -0.013534
 H         0.521955        -0.143336         0.102134
 H         1.290015         2.311618         1.388971
 H         0.679090         3.247705        -0.050955
 H         0.124530         4.214026         2.593797
 H        -1.205689         2.758252         3.742968
 H        -0.119229         0.568193         2.543617
 H        -1.928651         0.403636         2.126529
 H        -2.384043         4.334995         2.093785
 H        -2.615126         1.006655         0.030102
 H        -1.541608         2.000185        -1.124334
