19
Iteration:  3625
 O        -0.196598         0.304858        -0.069621
 C        -0.698189         1.376944         0.678131
 C         0.087944         2.634028         0.380295
 C        -0.404596         3.582762         1.613355
 C        -0.895813         2.606976         2.730388
 C        -0.624155         1.200240         2.186557
 C        -1.889075         3.408430         1.888309
 O        -2.613153         2.958340         0.755866
 C        -2.118060         1.707939         0.215267
 H         0.669162         0.518198        -0.492131
 H         1.203066         2.401022         0.515866
 H        -0.102282         3.041606        -0.662148
 H         0.187926         4.467723         1.773669
 H        -0.759780         2.726125         3.781352
 H         0.366064         0.969344         2.365719
 H        -1.316709         0.433220         2.503808
 H        -2.333567         4.334270         2.292336
 H        -2.737050         0.823304         0.338384
 H        -1.960096         1.920915        -0.901656
