19
Iteration:  1978
 O        -0.314953         0.317028        -0.079378
 C        -0.670834         1.506204         0.626227
 C         0.392653         2.565330         0.795956
 C        -0.228160         3.443500         1.935828
 C        -1.174864         2.503792         2.772026
 C        -1.086092         1.168097         2.102379
 C        -1.834914         3.444819         1.759254
 O        -2.529369         2.949722         0.607376
 C        -1.850260         1.960442        -0.195703
 H         0.365294        -0.246902         0.372057
 H         1.356505         2.205555         1.070073
 H         0.428861         3.128556        -0.161630
 H         0.438331         4.131986         2.395694
 H        -1.345279         2.548416         3.825270
 H        -0.388356         0.435045         2.558859
 H        -2.027442         0.623355         2.160804
 H        -2.234880         4.395198         2.122053
 H        -2.479649         1.071034        -0.499250
 H        -1.414054         2.395018        -1.052110
