19
Iteration:  3707
 O         0.001141         0.302177         0.013809
 C        -0.721252         1.367469         0.656639
 C         0.073019         2.651507         0.409605
 C        -0.323560         3.596915         1.582155
 C        -0.857077         2.674259         2.628922
 C        -0.688096         1.244268         2.175175
 C        -1.835040         3.426962         1.856028
 O        -2.796952         2.773228         0.978835
 C        -2.111382         1.833759         0.018891
 H        -0.554110        -0.212991        -0.591100
 H         1.142715         2.345665         0.385287
 H        -0.108062         3.226018        -0.501394
 H         0.326616         4.461923         1.600698
 H        -0.534768         2.893585         3.695589
 H         0.308288         0.722704         2.534700
 H        -1.360810         0.459164         2.622593
 H        -2.293756         4.151021         2.389527
 H        -2.928994         0.997059        -0.172722
 H        -1.937751         2.261968        -0.963522
