19
Iteration:   795
 O        -0.268977         0.302595        -0.122199
 C        -0.631073         1.404777         0.647334
 C         0.295166         2.697432         0.805413
 C        -0.295963         3.518803         1.906671
 C        -1.175387         2.525883         2.747386
 C        -1.123160         1.074079         2.113740
 C        -1.705278         3.485640         1.766961
 O        -2.507903         2.915405         0.657072
 C        -1.849045         1.927077        -0.190528
 H         0.560778        -0.130557         0.063346
 H         1.353260         2.366315         1.063670
 H         0.479620         3.091567        -0.210197
 H         0.239060         4.239514         2.512566
 H        -1.259524         2.672979         3.811622
 H        -0.547601         0.229539         2.573267
 H        -2.174858         0.623915         2.039580
 H        -2.388003         4.244835         2.214847
 H        -2.687862         1.233548        -0.301860
 H        -1.561562         2.394813        -1.096190
