19
Iteration:  2198charge 0 multiplicity 1
 O        -0.110330         0.215150         0.121322
 C        -0.715589         1.424869         0.551623
 C         0.460871         2.590424         0.750792
 C        -0.266801         3.453621         1.785462
 C        -1.174644         2.465212         2.688446
 C        -1.013406         1.137274         2.032324
 C        -1.822364         3.450871         1.821326
 O        -2.548969         3.053412         0.703759
 C        -2.044585         2.027711        -0.139353
 H        -0.624827        -0.235367        -0.576544
 H         1.423953         2.083002         1.067772
 H         0.686990         3.154394        -0.187414
 H         0.270372         4.365250         2.255375
 H        -1.415568         2.469345         3.785359
 H        -0.216486         0.661897         2.607588
 H        -1.955523         0.624049         1.999296
 H        -2.210147         4.463023         2.146434
 H        -2.858734         1.249553        -0.195515
 H        -1.859489         2.326222        -1.187667
