19
Iteration:  4003
 O        -0.237797         0.322546        -0.208299
 C        -0.656773         1.486952         0.645272
 C         0.211283         2.761559         0.431519
 C        -0.293417         3.596503         1.578911
 C        -0.888206         2.707532         2.698783
 C        -0.749430         1.251258         2.297471
 C        -1.806899         3.483764         1.737961
 O        -2.690834         2.705246         0.928194
 C        -2.069828         1.589605         0.210897
 H        -0.849590        -0.455244        -0.035298
 H         1.347253         2.546242         0.389080
 H         0.107112         3.227884        -0.533947
 H         0.286980         4.493813         1.780328
 H        -0.807714         2.962381         3.774319
 H         0.241804         1.029899         2.363385
 H        -1.510360         0.446855         2.602342
 H        -2.563005         4.247753         2.275650
 H        -2.628148         0.728262         0.390479
 H        -1.960435         1.856512        -0.935103
