19
Iteration:  3287
 O        -0.216926         0.280171        -0.032861
 C        -0.678778         1.386293         0.650865
 C         0.229801         2.568248         0.627390
 C        -0.308346         3.585581         1.656544
 C        -0.988976         2.605190         2.657930
 C        -0.667456         1.173196         2.176652
 C        -1.873192         3.399889         1.795215
 O        -2.727773         2.839179         0.837754
 C        -1.986493         1.927888         0.015121
 H        -0.505869         0.295786        -0.974708
 H         1.299571         2.176623         0.606421
 H         0.154182         2.981526        -0.397635
 H         0.177372         4.474902         1.985483
 H        -1.076977         2.893179         3.755231
 H         0.369817         1.023315         2.380021
 H        -1.468470         0.508498         2.579163
 H        -2.327117         4.296264         2.228863
 H        -2.797584         1.238908        -0.252311
 H        -1.665631         2.493307        -0.937091
