19
Iteration:  3337
 O        -0.189228         0.306650        -0.143637
 C        -0.662279         1.428410         0.641446
 C         0.228938         2.726393         0.484620
 C        -0.286256         3.551298         1.703240
 C        -1.017848         2.523915         2.644719
 C        -0.795835         1.161219         2.116683
 C        -1.829775         3.484143         1.868572
 O        -2.588571         2.952813         0.695537
 C        -2.138173         1.699753         0.268037
 H         0.695762         0.287026         0.231057
 H         1.269916         2.435764         0.673663
 H         0.197067         3.168249        -0.554798
 H         0.277591         4.400079         2.031955
 H        -1.140481         2.681096         3.662378
 H         0.151335         0.724031         2.568573
 H        -1.635899         0.508967         2.372213
 H        -2.422526         4.182190         2.417555
 H        -2.870608         0.859777         0.618691
 H        -2.297789         1.758927        -0.790835
