19
Iteration:  1652charge 0 multiplicity 1
 O        -0.407752         0.303431        -0.239296
 C        -0.631816         1.371107         0.682286
 C         0.384542         2.595679         0.885062
 C        -0.377972         3.481486         1.931204
 C        -1.108089         2.523305         2.737237
 C        -0.994509         1.092213         2.154785
 C        -1.892564         3.452377         1.729800
 O        -2.436849         3.061940         0.542645
 C        -1.859399         1.905580        -0.041893
 H         0.399209        -0.206462         0.013326
 H         1.386511         2.561605         1.234859
 H         0.424123         3.085698        -0.088450
 H         0.107415         4.346546         2.336703
 H        -1.325883         2.701687         3.740957
 H        -0.065676         0.541212         2.620879
 H        -1.862332         0.461836         2.399893
 H        -2.363729         4.383492         2.046162
 H        -2.458973         1.082284        -0.385915
 H        -1.211181         2.194845        -0.927112
