19
Iteration:   466
 O        -0.200983         0.336722        -0.170209
 C        -0.702421         1.392880         0.670007
 C         0.286486         2.581471         0.801306
 C        -0.353171         3.402290         1.948736
 C        -1.165410         2.449997         2.682963
 C        -1.005131         1.121039         2.098072
 C        -1.838726         3.486839         1.783539
 O        -2.385669         3.159792         0.537075
 C        -1.930312         1.848620        -0.035057
 H         0.358750        -0.214115         0.381080
 H         1.187534         2.163032         1.174101
 H         0.377016         3.064158        -0.181399
 H         0.134612         4.199331         2.277651
 H        -1.243109         2.662197         3.776501
 H        -0.208757         0.571403         2.585815
 H        -1.979885         0.505539         2.300294
 H        -2.461143         4.292579         2.224434
 H        -2.838974         1.312769         0.039798
 H        -1.663760         2.165879        -1.059029
