19
Iteration:  2435charge 0 multiplicity 1
 O        -0.163344         0.164102        -0.033647
 C        -0.660393         1.402792         0.624327
 C         0.459151         2.645909         0.766553
 C        -0.318796         3.549310         1.717593
 C        -1.099666         2.532193         2.675232
 C        -0.932125         1.136049         2.094116
 C        -1.770768         3.496207         1.784494
 O        -2.691221         3.032248         0.727114
 C        -2.011752         1.895686        -0.018736
 H        -0.819051        -0.104409        -0.695054
 H         1.431726         2.273008         1.216148
 H         0.664607         3.194734        -0.162678
 H         0.108425         4.471727         1.965779
 H        -1.150847         2.554369         3.693169
 H         0.012909         0.715305         2.476727
 H        -1.847731         0.463137         2.198768
 H        -2.276765         4.255607         2.312316
 H        -2.669712         0.948121        -0.006262
 H        -1.999209         2.247139        -1.017768
