19
Iteration:  2798charge 0 multiplicity 1
 O        -0.119928         0.283850        -0.126364
 C        -0.681316         1.369390         0.645212
 C         0.424806         2.487166         0.737583
 C        -0.329000         3.503521         1.533038
 C        -0.993990         2.616591         2.684292
 C        -0.870270         1.210462         2.196318
 C        -1.793899         3.439549         1.715942
 O        -2.817844         2.860179         0.935287
 C        -2.103601         1.966040         0.031370
 H         0.361318         0.571851        -0.898446
 H         1.343947         2.082875         1.218422
 H         0.490562         2.893636        -0.253817
 H         0.076000         4.533984         1.630532
 H        -0.882823         3.017735         3.663129
 H         0.043440         0.763599         2.535621
 H        -1.737917         0.601328         2.429690
 H        -2.069802         4.399108         2.157642
 H        -2.901716         1.274088        -0.196700
 H        -1.793944         2.490669        -0.948097
