19
Iteration:  3594charge 0 multiplicity 1
 O        -0.034849         0.235596         0.013421
 C        -0.694086         1.369558         0.625619
 C        -0.001820         2.734300         0.407930
 C        -0.324549         3.617814         1.665194
 C        -0.873498         2.552732         2.689251
 C        -0.684957         1.160595         2.141374
 C        -1.809620         3.431016         1.821737
 O        -2.624497         2.990963         0.751478
 C        -2.201093         1.711821         0.237344
 H         0.151926         0.368657        -0.919796
 H         1.096770         2.618079         0.463927
 H        -0.434888         3.261611        -0.440449
 H         0.234663         4.524935         1.812635
 H        -0.976613         2.638416         3.713410
 H         0.230221         0.659148         2.527340
 H        -1.430776         0.389856         2.516311
 H        -2.317987         4.357016         2.207962
 H        -2.957658         0.863432         0.437389
 H        -2.198223         1.815029        -0.814512
