19
Iteration:   946
 O        -0.299185         0.353536        -0.144658
 C        -0.624670         1.378824         0.657385
 C         0.368127         2.557127         0.805667
 C        -0.321806         3.534319         1.849376
 C        -1.240023         2.445725         2.749428
 C        -0.941275         1.078701         2.165739
 C        -1.838166         3.433630         1.800548
 O        -2.514677         3.072693         0.540206
 C        -1.873246         1.940199        -0.072732
 H         0.504645        -0.047374         0.237955
 H         1.315339         2.163367         1.189143
 H         0.470368         3.039376        -0.146310
 H         0.312904         4.452679         2.037647
 H        -1.469270         2.522988         3.764469
 H        -0.070417         0.589891         2.658288
 H        -1.766655         0.450916         2.246468
 H        -2.488728         4.173622         2.304618
 H        -2.659480         1.124895        -0.184900
 H        -1.711389         2.350580        -1.113073
