19
Iteration:  4072
 O        -0.108443         0.239252        -0.014034
 C        -0.657770         1.442734         0.612050
 C         0.132908         2.790000         0.394116
 C        -0.339203         3.532138         1.582404
 C        -0.870242         2.707230         2.726625
 C        -0.771333         1.243584         2.121496
 C        -1.768770         3.467275         1.788796
 O        -2.683590         2.775382         0.924568
 C        -2.128555         1.640148         0.217450
 H        -0.631690         0.057927        -0.818855
 H         1.219146         2.536443         0.219385
 H        -0.177953         3.381352        -0.518555
 H         0.103764         4.512498         1.753518
 H        -0.772897         2.992790         3.783785
 H         0.160017         0.799795         2.252215
 H        -1.593021         0.732134         2.493768
 H        -2.186918         4.341470         2.137056
 H        -2.592498         0.726463         0.498840
 H        -2.248551         1.856610        -0.874735
