19
Iteration:  4005
 O        -0.226906         0.318914        -0.213394
 C        -0.667945         1.458630         0.649843
 C         0.198422         2.752383         0.426436
 C        -0.276616         3.611977         1.576805
 C        -0.896169         2.707604         2.698574
 C        -0.734287         1.255230         2.307755
 C        -1.820703         3.474136         1.746964
 O        -2.705030         2.715304         0.920619
 C        -2.047964         1.602646         0.203764
 H        -0.923228        -0.381340        -0.045255
 H         1.340070         2.488293         0.354889
 H         0.060591         3.268405        -0.563742
 H         0.263576         4.470341         1.846965
 H        -0.863191         3.002398         3.789069
 H         0.339282         0.928783         2.412441
 H        -1.432159         0.501681         2.650994
 H        -2.517015         4.256768         2.255867
 H        -2.664625         0.709494         0.353104
 H        -1.982371         1.911108        -0.893120
