19
Iteration:  4024
 O        -0.155426         0.318419        -0.108674
 C        -0.621116         1.368609         0.700039
 C         0.104634         2.626883         0.459149
 C        -0.387186         3.554558         1.569013
 C        -0.871323         2.689763         2.660482
 C        -0.540668         1.253811         2.221871
 C        -1.839601         3.431089         1.806173
 O        -2.717718         2.811420         0.887902
 C        -2.156506         1.778461         0.162962
 H        -0.733161        -0.317368        -0.544496
 H         1.209484         2.606867         0.475885
 H        -0.110413         2.903801        -0.538049
 H         0.063960         4.542411         1.571024
 H        -0.737980         2.852705         3.729094
 H         0.343334         1.047778         2.688924
 H        -1.460728         0.597974         2.469906
 H        -2.406447         4.371942         2.218988
 H        -2.802478         0.938102         0.240644
 H        -1.885401         1.993721        -0.930772
