19
Iteration:  2065
 O        -0.155210         0.283644        -0.114806
 C        -0.709392         1.380600         0.616020
 C         0.240350         2.697487         0.781176
 C        -0.199581         3.414945         1.978710
 C        -1.164058         2.464123         2.695842
 C        -1.212006         1.087154         2.159513
 C        -1.757517         3.517070         1.770068
 O        -2.357211         3.110367         0.531671
 C        -1.977069         1.806553        -0.030364
 H         0.790297         0.426413        -0.249400
 H         1.369989         2.415562         0.724450
 H         0.151788         3.200511        -0.214449
 H         0.507193         4.130897         2.410351
 H        -1.465546         2.648465         3.712253
 H        -0.594011         0.341388         2.702374
 H        -2.297814         0.849218         2.254040
 H        -2.322084         4.346698         2.015584
 H        -2.769010         1.059059         0.200583
 H        -2.045672         1.921191        -1.085196
