19
Iteration:   931charge 0 multiplicity 1
 O        -0.161513         0.319884        -0.137969
 C        -0.757491         1.455759         0.721005
 C         0.300561         2.552667         0.750110
 C        -0.337919         3.417045         1.766160
 C        -1.263956         2.449474         2.792336
 C        -0.945469         1.100491         2.198733
 C        -1.802084         3.376211         1.761330
 O        -2.484725         3.121103         0.606498
 C        -1.938134         2.006129        -0.142740
 H         0.637742        -0.143599         0.266687
 H         1.329580         2.210759         0.968669
 H         0.484566         2.927510        -0.290576
 H        -0.096490         4.282303         2.260750
 H        -1.410716         2.540225         3.935266
 H        -0.026252         0.698961         2.659954
 H        -1.672797         0.240422         2.378269
 H        -2.185374         4.416129         2.242575
 H        -2.663869         1.279991        -0.311550
 H        -1.361600         2.262052        -0.981584
