19
Iteration:  3422
 O        -0.305475         0.234426        -0.092446
 C        -0.612251         1.497972         0.610966
 C         0.297571         2.689707         0.567886
 C        -0.344623         3.532049         1.648874
 C        -1.027773         2.605574         2.706749
 C        -0.637481         1.246377         2.172161
 C        -1.881684         3.432863         1.796057
 O        -2.704490         2.890192         0.823728
 C        -2.052133         1.679803         0.125504
 H         0.151801         0.651324        -0.863783
 H         1.339832         2.260978         0.753062
 H         0.424869         2.999254        -0.495547
 H         0.072527         4.480225         1.885166
 H        -0.941604         2.801492         3.710857
 H         0.371783         1.033934         2.376933
 H        -1.338270         0.505641         2.492205
 H        -2.249808         4.313984         2.249606
 H        -2.680226         0.857725         0.415129
 H        -2.135162         1.940610        -0.959432
