19
Iteration:  1884
 O        -0.413865         0.201253        -0.131030
 C        -0.598651         1.432668         0.655931
 C         0.373924         2.569387         0.847854
 C        -0.307369         3.412880         1.884861
 C        -1.230933         2.492101         2.694761
 C        -0.960890         1.187608         2.085596
 C        -1.919538         3.463786         1.777724
 O        -2.475235         3.081302         0.602224
 C        -1.767128         2.000977        -0.077859
 H         0.492970        -0.151183         0.021547
 H         1.459815         2.313498         1.272266
 H         0.412340         3.067516        -0.127156
 H         0.244612         4.209378         2.389237
 H        -1.439339         2.491900         3.746909
 H        -0.102376         0.742193         2.639445
 H        -1.684535         0.364675         2.179195
 H        -2.560752         4.210846         2.034460
 H        -2.401733         1.142640        -0.221660
 H        -1.510007         2.435468        -1.109441
