19
Iteration:  2620charge 0 multiplicity 1
 O        -0.107577         0.190887         0.095126
 C        -0.656505         1.446721         0.565165
 C         0.366378         2.662446         0.599826
 C        -0.316097         3.586208         1.603014
 C        -1.042157         2.489453         2.628340
 C        -0.965164         1.156727         2.007295
 C        -1.756338         3.489632         1.835733
 O        -2.689072         2.815646         0.921932
 C        -2.047823         2.030863        -0.067798
 H        -0.688481        -0.470902         0.519580
 H         1.419566         2.378757         0.900049
 H         0.544504         3.189925        -0.443880
 H         0.213465         4.443720         2.082633
 H        -0.948714         2.436893         3.782001
 H        -0.162430         0.686451         2.530288
 H        -1.900189         0.612156         2.256934
 H        -2.208903         4.528696         2.256053
 H        -2.699517         1.155247        -0.325540
 H        -2.040962         2.641088        -1.089001
