19
Iteration:  4693
 O        -0.396365         0.208135        -0.064245
 C        -0.685762         1.468985         0.654878
 C         0.177651         2.737815         0.546773
 C        -0.291735         3.612603         1.684778
 C        -0.867348         2.688704         2.818652
 C        -0.761635         1.196801         2.101300
 C        -1.876517         3.376424         1.883936
 O        -2.553484         2.852299         0.678257
 C        -2.016089         1.731174         0.035054
 H         0.581295         0.146601        -0.132152
 H         1.182510         2.480631         0.690876
 H         0.015616         3.210117        -0.438420
 H         0.241148         4.490212         2.033311
 H        -0.765699         2.956891         3.965485
 H         0.082921         0.503671         2.351401
 H        -1.686671         0.565362         2.357000
 H        -2.563067         4.155172         2.362458
 H        -2.604513         0.871038         0.089359
 H        -1.670578         1.957109        -1.011595
