19
Iteration:  2416
 O        -0.156911         0.303081        -0.007866
 C        -0.682881         1.421560         0.632171
 C         0.244684         2.565943         0.606594
 C        -0.303782         3.474881         1.752689
 C        -1.055011         2.524576         2.705562
 C        -0.953275         1.126713         2.183287
 C        -1.828743         3.475212         1.768121
 O        -2.579295         2.930492         0.745034
 C        -1.902051         1.990311        -0.073960
 H        -0.887866        -0.344571         0.058746
 H         1.320790         2.339656         0.740660
 H         0.268790         3.017045        -0.347798
 H         0.248913         4.261268         2.182840
 H        -1.140982         2.801238         3.753614
 H        -0.147555         0.506601         2.651755
 H        -1.899007         0.521105         2.241582
 H        -2.317017         4.387517         2.173414
 H        -2.627836         1.272042        -0.427377
 H        -1.494422         2.606747        -0.916391
