19
Iteration:  3436charge 0 multiplicity 1
 O        -0.256818         0.330809        -0.123893
 C        -0.697905         1.369489         0.673932
 C         0.279726         2.605812         0.550757
 C        -0.338269         3.562859         1.584453
 C        -0.950698         2.628045         2.657593
 C        -0.657204         1.192196         2.220603
 C        -1.843376         3.460250         1.773689
 O        -2.716165         2.800839         0.837316
 C        -2.119466         1.834262         0.118521
 H         0.635300         0.353439        -0.497302
 H         1.276196         2.477711         0.948415
 H         0.216282         3.227892        -0.380701
 H         0.247341         4.393548         1.955190
 H        -0.943199         2.931927         3.761611
 H         0.308921         1.021035         2.599847
 H        -1.226495         0.384077         2.568933
 H        -2.510234         4.278329         2.205795
 H        -2.731012         0.920910         0.184468
 H        -2.024352         2.119259        -0.918895
