19
Iteration:  2082
 O        -0.202468         0.204407        -0.127100
 C        -0.666233         1.351137         0.699636
 C         0.267234         2.607000         0.677567
 C        -0.334644         3.401019         1.930562
 C        -1.181742         2.528535         2.750033
 C        -1.108327         1.081866         2.163503
 C        -1.833067         3.489912         1.812070
 O        -2.379636         3.184454         0.527196
 C        -1.921636         1.923660        -0.041377
 H         0.757980         0.186901        -0.045494
 H         1.314497         2.419122         0.800767
 H         0.189172         3.252423        -0.211983
 H         0.224694         4.187728         2.457193
 H        -1.051670         2.635658         3.832997
 H        -0.321665         0.534213         2.676244
 H        -2.007375         0.481135         1.932102
 H        -2.459583         4.314898         2.275395
 H        -2.747488         1.206747        -0.134780
 H        -1.477561         2.021232        -1.096251
