19
Iteration:  2824
 O        -0.278626         0.293896        -0.114445
 C        -0.670251         1.380502         0.656708
 C         0.310756         2.542792         0.609165
 C        -0.327492         3.547656         1.640406
 C        -0.941626         2.665840         2.660676
 C        -0.957258         1.240347         2.206666
 C        -1.846250         3.527174         1.763138
 O        -2.662895         2.645285         0.934227
 C        -1.870448         1.978473        -0.024771
 H        -0.003430         0.519205        -0.999584
 H         1.229278         2.165116         1.225956
 H         0.417886         2.854199        -0.407585
 H         0.232985         4.432676         1.943854
 H        -0.728301         3.059287         3.674561
 H        -0.098294         0.656410         2.664989
 H        -1.911376         0.704043         2.351930
 H        -2.416695         4.393053         2.323267
 H        -2.654983         1.184032        -0.279057
 H        -1.611127         2.456032        -0.954166
