19
Iteration:  1511
 O        -0.147664         0.325220        -0.117767
 C        -0.648907         1.402023         0.630826
 C         0.428361         2.514046         0.814168
 C        -0.311197         3.371332         1.793932
 C        -1.222626         2.489913         2.775421
 C        -1.058574         1.137663         2.078590
 C        -1.839857         3.522449         1.746157
 O        -2.606706         3.062184         0.658162
 C        -1.936852         1.950107        -0.075521
 H         0.580186         0.012480         0.491805
 H         1.411842         2.201438         1.254171
 H         0.780827         2.933674        -0.147940
 H         0.088355         4.352720         2.178539
 H        -0.998022         2.605479         3.792753
 H        -0.286673         0.550043         2.437516
 H        -2.006158         0.524086         2.088351
 H        -2.261582         4.400741         2.205905
 H        -2.790311         1.254193        -0.254535
 H        -1.612317         2.375859        -1.065489
