19
Iteration:  2329charge 0 multiplicity 1
 C         0.000415        -0.061658         0.011173
 C         1.511513         0.014890        -0.003766
 C         2.285298         1.406770         0.351318
 C         3.288894         0.462238         1.082124
 C         4.039444        -0.532034         0.090517
 C         3.478687        -0.309627        -1.311466
 O         2.002294        -0.459122        -1.310699
 O         3.414629        -1.812911         0.600611
 C         2.346631        -0.749461         1.054061
 H        -0.349957         0.581823         0.747415
 H        -0.418596         0.368386        -0.996392
 H        -0.418283        -1.074748         0.085837
 H         2.501617         1.881598        -0.744615
 H         1.801550         2.143214         1.119590
 H         3.782324         0.760665         2.081210
 H         5.125154        -0.649682         0.018011
 H         3.516447         0.747980        -1.539581
 H         4.017020        -1.042549        -1.859458
 H         1.826649        -1.066156         1.965996
