19
Iteration:  3443charge 0 multiplicity 1
 C         0.085678        -0.167119         0.027459
 C         1.575202         0.024317        -0.021381
 C         2.248245         1.318968         0.407517
 C         3.337706         0.428720         0.979499
 C         3.957433        -0.488047         0.027126
 C         3.501302        -0.318928        -1.302157
 O         2.075111        -0.359613        -1.329647
 O         3.253931        -1.704008         0.653169
 C         2.314877        -0.745669         1.108608
 H        -0.260569         0.065134         0.990592
 H        -0.372895         0.501788        -0.683344
 H        -0.193919        -1.230989        -0.186144
 H         2.464581         2.005334        -0.454691
 H         1.648968         1.788926         1.216020
 H         4.033035         0.700040         1.802202
 H         5.049354        -0.674081         0.039078
 H         4.036619         0.543581        -1.675679
 H         3.763599        -0.998959        -2.090814
 H         1.781219        -1.226947         1.950802
