19
Iteration:  3483
 C        -0.020733         0.058627        -0.136632
 C         1.481140        -0.020892         0.013707
 C         2.285267         1.270620         0.469138
 C         3.315509         0.405653         1.099842
 C         4.008593        -0.447227        -0.017501
 C         3.427337        -0.359125        -1.353538
 O         2.006075        -0.550703        -1.229923
 O         3.421872        -1.625726         0.624447
 C         2.416891        -0.825097         1.106203
 H        -0.564980        -0.128070         0.811148
 H        -0.373731         1.005086        -0.488109
 H        -0.362230        -0.650353        -1.056689
 H         2.545357         2.048963        -0.303092
 H         1.752080         1.885858         1.217868
 H         4.007996         0.760334         1.888303
 H         5.136475        -0.212584        -0.013330
 H         3.716513         0.601161        -1.896212
 H         3.951824        -1.260639        -1.831240
 H         1.839038        -1.146568         1.993936
