19
Iteration:  2001
 C         0.083386        -0.070546        -0.025216
 C         1.571459        -0.035085        -0.034073
 C         2.262066         1.306719         0.420761
 C         3.304993         0.412836         1.110467
 C         4.013729        -0.519926         0.078052
 C         3.467448        -0.326372        -1.414965
 O         1.981886        -0.434283        -1.340817
 O         3.352166        -1.648636         0.628328
 C         2.349768        -0.759973         1.132671
 H        -0.300635         0.443245         0.898222
 H        -0.266556         0.504474        -0.944178
 H        -0.349347        -1.100942        -0.109301
 H         2.451879         1.986639        -0.398002
 H         1.762248         1.925917         1.179548
 H         3.817978         0.736689         2.067441
 H         5.089711        -0.556931         0.034083
 H         3.662701         0.668395        -1.621194
 H         3.833023        -1.087018        -2.082479
 H         1.783293        -1.208985         1.966651
