19
Iteration:  4044charge 0 multiplicity 1
 C         0.016827        -0.154706        -0.082687
 C         1.487683         0.017731        -0.015961
 C         2.267987         1.379656         0.446965
 C         3.363221         0.372165         0.963645
 C         4.064388        -0.532481        -0.010153
 C         3.449987        -0.274159        -1.328879
 O         2.010050        -0.436393        -1.230573
 O         3.327321        -1.712120         0.660237
 C         2.366382        -0.715376         1.122419
 H        -0.539299         0.808019        -0.317895
 H        -0.137954        -0.810191        -0.996473
 H        -0.350918        -0.616230         0.768842
 H         2.603689         2.337003        -0.104110
 H         1.608893         1.770581         1.257825
 H         4.032842         0.634409         1.913001
 H         5.192640        -0.651040        -0.023801
 H         3.733661         0.836771        -1.730870
 H         3.871633        -0.939858        -2.061154
 H         1.849852        -1.031762         2.082660
