19
Iteration:  2502
 C         0.042203        -0.162046        -0.110807
 C         1.597865         0.004114         0.004866
 C         2.264132         1.383349         0.473407
 C         3.384720         0.428724         1.038135
 C         3.959757        -0.544803         0.042888
 C         3.440558        -0.373650        -1.402951
 O         2.008262        -0.331125        -1.306737
 O         3.313588        -1.693302         0.685122
 C         2.342887        -0.769732         1.131721
 H        -0.512405         0.410586         0.636578
 H        -0.258504         0.169598        -1.167621
 H        -0.246350        -1.243957        -0.034430
 H         2.426268         2.195076        -0.244128
 H         1.783703         1.936106         1.246171
 H         3.988983         0.799840         1.811970
 H         5.063643        -0.732304         0.163275
 H         3.988135         0.539543        -1.825222
 H         3.829329        -1.178486        -2.042389
 H         1.862149        -1.016115         2.081780
