19
Iteration:  3301charge 0 multiplicity 1
 C         0.009319        -0.173059        -0.010563
 C         1.494272         0.028390        -0.018064
 C         2.280183         1.333106         0.345129
 C         3.315396         0.443032         1.060088
 C         4.127798        -0.441485         0.055852
 C         3.477677        -0.382291        -1.263368
 O         2.038616        -0.397375        -1.292466
 O         3.253130        -1.702252         0.572016
 C         2.401308        -0.727454         1.123971
 H        -0.293028        -0.543943         0.966348
 H        -0.414318         0.934009        -0.258226
 H        -0.210008        -1.034178        -0.754716
 H         2.470066         2.004750        -0.523655
 H         1.684561         1.907783         1.059937
 H         3.869993         0.696553         2.065540
 H         5.186768        -0.495056         0.222478
 H         3.868626         0.430321        -1.954649
 H         3.647027        -1.191572        -1.971417
 H         1.713351        -0.996925         1.963466
