19
Iteration:  4189charge 0 multiplicity 1
 C         0.082786        -0.183361        -0.031334
 C         1.568554         0.042650        -0.010973
 C         2.215453         1.301775         0.443410
 C         3.379415         0.441589         1.073849
 C         4.011240        -0.538094         0.013033
 C         3.451914        -0.358384        -1.462590
 O         2.027909        -0.335902        -1.320711
 O         3.305207        -1.672920         0.706756
 C         2.331441        -0.758233         1.106220
 H        -0.374473         0.533022        -0.653768
 H        -0.275340        -1.093706        -0.312994
 H        -0.256038         0.205708         0.971649
 H         2.407072         2.120288        -0.237516
 H         1.719091         1.640932         1.348720
 H         3.994224         0.712124         1.887065
 H         5.040736        -0.712271         0.101690
 H         3.724809         0.700570        -1.784091
 H         3.796724        -1.100936        -2.241309
 H         1.865901        -1.158907         1.968847
