19
Iteration:  4025charge 0 multiplicity 1
 C        -0.029667        -0.201037        -0.027289
 C         1.529852         0.030325        -0.023894
 C         2.230241         1.350154         0.505512
 C         3.407096         0.537147         1.051060
 C         3.994940        -0.656114         0.082206
 C         3.473863        -0.316887        -1.457385
 O         2.087232        -0.334846        -1.380726
 O         3.303373        -1.731442         0.679868
 C         2.405856        -0.707552         1.134194
 H        -0.694557         0.696546        -0.051660
 H        -0.347415        -0.847573        -0.843606
 H        -0.277904        -0.749291         0.954414
 H         2.316832         1.943696        -0.328283
 H         1.793998         1.894069         1.312408
 H         3.968193         0.884865         1.898513
 H         5.063327        -0.706071         0.054848
 H         3.790836         0.617995        -1.686203
 H         3.752559        -0.947970        -2.337866
 H         1.705338        -1.077004         1.872831
