19
Iteration:  1849
 C         0.098732        -0.088543         0.054301
 C         1.543919         0.035842        -0.092258
 C         2.260278         1.325215         0.340382
 C         3.224086         0.441518         1.047071
 C         4.073893        -0.430083         0.027852
 C         3.544668        -0.322339        -1.368656
 O         2.039190        -0.507615        -1.293949
 O         3.252771        -1.717577         0.665956
 C         2.310074        -0.744057         1.119266
 H        -0.235918         0.140891         0.992000
 H        -0.461014         0.560384        -0.676851
 H        -0.109825        -1.125285        -0.240643
 H         2.691919         2.055847        -0.370947
 H         1.685704         1.853585         1.188236
 H         3.759571         0.726717         1.992276
 H         5.093164        -0.516533         0.260025
 H         4.067388         0.589850        -1.806822
 H         3.933883        -1.079546        -1.992653
 H         1.694168        -1.137290         1.970065
