19
Iteration:  1088charge 0 multiplicity 1
 C         0.102903        -0.195195         0.048732
 C         1.587042         0.038113        -0.095142
 C         2.235799         1.396130         0.329325
 C         3.284050         0.433450         1.049631
 C         4.022295        -0.518440         0.117367
 C         3.509052        -0.345772        -1.245289
 O         2.054197        -0.388984        -1.366365
 O         3.243991        -1.720321         0.589473
 C         2.329590        -0.733508         1.094560
 H        -0.285896         0.121279         1.035445
 H        -0.496084         0.175956        -0.756503
 H        -0.113143        -1.269625         0.182261
 H         2.536650         2.297027        -0.311687
 H         1.551529         1.913331         1.075199
 H         3.909084         0.801526         1.910224
 H         5.161535        -0.557982         0.175449
 H         3.933725         0.549197        -1.772365
 H         3.875228        -1.171836        -1.890569
 H         1.767858        -0.928427         1.990411
