19
Iteration:   122charge 0 multiplicity 1
 C         0.088125        -0.112101         0.037579
 C         1.574024        -0.054431        -0.045642
 C         2.235303         1.362112         0.330658
 C         3.289394         0.448772         1.087126
 C         4.014330        -0.499287         0.060989
 C         3.460337        -0.260130        -1.328471
 O         2.050094        -0.456560        -1.327187
 O         3.341700        -1.690100         0.618014
 C         2.306472        -0.798188         1.107271
 H        -0.267867         0.442054         0.938822
 H        -0.410202         0.272058        -0.863616
 H        -0.094331        -1.084334         0.200220
 H         2.437103         2.106984        -0.308956
 H         1.585404         1.737917         1.049613
 H         3.877549         0.845132         1.858330
 H         5.105299        -0.574313         0.061807
 H         3.734664         0.686924        -1.730500
 H         3.900645        -0.955183        -2.002662
 H         1.710746        -1.096467         1.951803
