19
Iteration:  2471charge 0 multiplicity 1
 C        -0.093544        -0.046600        -0.006100
 C         1.558941        -0.011796        -0.028678
 C         2.254953         1.380697         0.386143
 C         3.332354         0.449911         1.130823
 C         4.044989        -0.571912         0.073067
 C         3.522893        -0.328265        -1.385988
 O         2.058218        -0.471705        -1.283736
 O         3.320988        -1.662367         0.586895
 C         2.384440        -0.790521         1.113795
 H        -0.334697         0.506832         0.815416
 H        -0.421001         0.339934        -1.109671
 H        -0.452379        -1.047672        -0.133302
 H         2.534138         1.993606        -0.534482
 H         1.514552         2.023279         0.896911
 H         3.898065         0.740917         2.050501
 H         5.105925        -0.823007         0.147011
 H         3.681240         0.783549        -1.567137
 H         3.847324        -1.072332        -2.047109
 H         1.964232        -1.201807         2.041162
