19
Iteration:  2104
 C         0.056646        -0.154831         0.068033
 C         1.565055         0.017021         0.028412
 C         2.227233         1.328703         0.374988
 C         3.354582         0.450927         1.087296
 C         3.979434        -0.511269         0.046559
 C         3.564350        -0.327296        -1.351508
 O         2.089653        -0.391138        -1.301605
 O         3.188063        -1.719480         0.571751
 C         2.340574        -0.703336         1.045910
 H        -0.051990         0.067433         1.147129
 H        -0.611212         0.427340        -0.683878
 H        -0.231071        -1.204076        -0.043307
 H         2.478513         2.003947        -0.534736
 H         1.483424         1.956457         0.988512
 H         4.022573         0.704080         1.924627
 H         5.078504        -0.767031         0.068140
 H         3.990113         0.484380        -1.883132
 H         4.088510        -1.007742        -2.070767
 H         1.713806        -1.013094         1.972610
