19
Iteration:  2473charge 0 multiplicity 1
 C        -0.077347        -0.043863        -0.022384
 C         1.575757        -0.017397        -0.024178
 C         2.239790         1.358031         0.365366
 C         3.336030         0.424134         1.124951
 C         4.055495        -0.560912         0.069069
 C         3.496342        -0.321118        -1.368917
 O         2.047451        -0.452296        -1.277484
 O         3.318476        -1.670083         0.587714
 C         2.389686        -0.784420         1.124981
 H        -0.376181         0.505003         0.819129
 H        -0.416291         0.267531        -1.096362
 H        -0.415712        -1.046571        -0.119385
 H         2.552431         2.055122        -0.493815
 H         1.518245         2.091409         0.869864
 H         3.935157         0.806641         2.060758
 H         5.081415        -0.798596         0.131060
 H         3.781545         0.723266        -1.565045
 H         3.846444        -1.058848        -2.044918
 H         1.913322        -1.164819         2.054708
