19
Iteration:  2882
 C         0.122842        -0.004579        -0.109815
 C         1.549839        -0.124141        -0.042023
 C         2.141493         1.316935         0.477757
 C         3.339140         0.438230         1.132892
 C         4.029015        -0.431155         0.066768
 C         3.460127        -0.413864        -1.374181
 O         1.976966        -0.404238        -1.288908
 O         3.364012        -1.683825         0.604609
 C         2.369865        -0.766417         1.081452
 H        -0.476521         0.332948         0.834830
 H        -0.067360         0.794690        -0.747061
 H        -0.378045        -1.035217        -0.349173
 H         2.509681         2.029301        -0.283614
 H         1.629089         1.800218         1.316228
 H         4.055131         0.791125         1.892841
 H         5.082148        -0.474617        -0.013080
 H         3.733958         0.502686        -1.812446
 H         3.891397        -1.311454        -1.852059
 H         1.877801        -1.124205         1.972070
