19
Iteration:    15
 C         0.025095        -0.122470        -0.020596
 C         1.527859        -0.030625        -0.001158
 C         2.045187         1.384230         0.415904
 C         3.290670         0.494183         1.078479
 C         4.107217        -0.550336         0.034599
 C         3.469836        -0.449633        -1.363656
 O         2.029131        -0.296016        -1.310040
 O         3.467196        -1.736168         0.685021
 C         2.412793        -0.751325         1.035221
 H        -0.431079         0.166982         1.059108
 H        -0.209403         0.743815        -0.782221
 H        -0.420357        -0.989747        -0.423750
 H         2.332170         2.250877        -0.498742
 H         1.536373         1.828794         1.257764
 H         3.744045         0.735434         1.984814
 H         5.139566        -0.598082         0.019566
 H         3.938977         0.386015        -2.009808
 H         3.569684        -1.566617        -1.797243
 H         1.784160        -1.050595         1.852256
