19
Iteration:  3503charge 0 multiplicity 1
 C         0.080316         0.060624        -0.142984
 C         1.577826        -0.027450        -0.045126
 C         2.146231         1.305237         0.437140
 C         3.320931         0.484256         1.096620
 C         4.056637        -0.543271         0.028449
 C         3.373303        -0.325834        -1.420223
 O         1.965889        -0.520389        -1.305709
 O         3.458078        -1.729215         0.661881
 C         2.411308        -0.804803         1.231714
 H        -0.385002        -0.041463         0.888221
 H        -0.212358         1.093349        -0.408926
 H        -0.408438        -0.462545        -0.986479
 H         2.214213         2.189835        -0.205412
 H         1.431718         1.673330         1.171819
 H         3.964733         0.865010         1.905764
 H         5.164270        -0.371884         0.010504
 H         3.659227         0.747659        -1.602378
 H         3.707068        -1.201154        -2.049748
 H         1.949938        -1.216226         2.155921
