19
Iteration:    29
 C        -0.004566        -0.058429        -0.055104
 C         1.510982        -0.002124        -0.067583
 C         2.126060         1.279227         0.518258
 C         3.267023         0.471277         0.990500
 C         4.048714        -0.485987         0.046298
 C         3.473904        -0.570092        -1.344798
 O         2.035030        -0.219380        -1.377791
 O         3.496412        -1.663157         0.707841
 C         2.392098        -0.807965         1.127521
 H        -0.372882         0.022526         0.983547
 H        -0.566284         0.737202        -0.582750
 H        -0.337055        -1.137998        -0.353000
 H         2.191296         2.046960        -0.386220
 H         1.448151         1.796615         1.288422
 H         3.990294         0.908839         1.796925
 H         5.201559        -0.483893         0.066857
 H         3.987926         0.168310        -2.052772
 H         3.715739        -1.527052        -1.884766
 H         1.935883        -1.235056         2.066136
