19
Iteration:  1878
 C         0.028609         0.031606        -0.016116
 C         1.513612        -0.047825        -0.081539
 C         2.188289         1.300345         0.363316
 C         3.277591         0.492399         1.108356
 C         4.010046        -0.516863         0.041301
 C         3.561379        -0.341773        -1.301328
 O         1.997534        -0.539130        -1.362791
 O         3.385863        -1.645756         0.628549
 C         2.390079        -0.779931         1.157897
 H        -0.487937         0.095210         1.090466
 H        -0.271116         0.946669        -0.468244
 H        -0.405266        -0.829035        -0.549581
 H         2.608361         1.914193        -0.483452
 H         1.625918         1.871174         1.010264
 H         3.855612         0.753711         1.994176
 H         5.150947        -0.557126         0.205431
 H         3.871315         0.723766        -1.509863
 H         3.863095        -1.265415        -1.941219
 H         1.882063        -1.275838         1.938173
