19
Iteration:  2814
 C         0.118461        -0.208582        -0.061782
 C         1.599856         0.066023        -0.065570
 C         2.270435         1.383448         0.427644
 C         3.316635         0.452658         1.093780
 C         4.006712        -0.541451        -0.015272
 C         3.551999        -0.277942        -1.358212
 O         2.008313        -0.341964        -1.317473
 O         3.195745        -1.785443         0.615246
 C         2.357530        -0.746610         1.220953
 H        -0.355026         0.079844         0.957809
 H        -0.591584         0.234528        -0.807653
 H         0.200783        -1.326299        -0.026133
 H         2.494405         1.991610        -0.409892
 H         1.524205         1.812919         1.126712
 H         4.095514         0.720999         1.817569
 H         5.033450        -0.688899         0.171271
 H         3.822303         0.710436        -1.634200
 H         3.628292        -1.000849        -2.103653
 H         1.684216        -0.945276         2.047736
