19
Iteration:  4326
 C         0.114708        -0.191054         0.052546
 C         1.601868         0.022983        -0.017460
 C         2.231750         1.355955         0.498535
 C         3.253331         0.408955         1.174838
 C         3.988895        -0.456149        -0.040115
 C         3.482190        -0.408748        -1.422805
 O         2.039016        -0.239095        -1.393451
 O         3.266888        -1.715526         0.565769
 C         2.372716        -0.760440         1.141271
 H        -0.351792        -0.342476        -0.983878
 H         0.065155        -1.309404         0.364118
 H        -0.358655         0.489258         0.690012
 H         2.451211         2.014422        -0.296190
 H         1.730978         1.861391         1.293235
 H         3.988298         0.664994         2.006358
 H         5.103712        -0.691738        -0.018912
 H         3.910978         0.524509        -1.945937
 H         3.760723        -1.426720        -1.718850
 H         1.718560        -1.078500         2.009973
