19
Iteration:  3921
 C        -0.095006        -0.058442        -0.095417
 C         1.489456        -0.009896         0.056186
 C         2.252230         1.301096         0.450953
 C         3.345010         0.405465         1.073679
 C         4.116464        -0.523478         0.087199
 C         3.460671        -0.231806        -1.385234
 O         2.075751        -0.476421        -1.262374
 O         3.319361        -1.697247         0.505943
 C         2.399974        -0.782139         1.153022
 H        -0.450156         0.124411        -1.104039
 H        -0.452998        -0.982139         0.351879
 H        -0.542803         0.725568         0.570390
 H         2.583654         1.971061        -0.426195
 H         1.672226         1.970225         1.145377
 H         4.062149         0.642834         1.949836
 H         5.206317        -0.748157         0.002633
 H         3.621984         0.790909        -1.698099
 H         3.749296        -0.910728        -2.150001
 H         2.066937        -0.941963         2.180302
