19
Iteration:  2150
 C        -0.058841        -0.094806        -0.154533
 C         1.533117        -0.003582        -0.082017
 C         2.257325         1.316328         0.552035
 C         3.397383         0.372909         1.058229
 C         4.040401        -0.541841         0.033135
 C         3.364627        -0.306661        -1.353489
 O         1.993118        -0.398305        -1.273101
 O         3.429804        -1.676383         0.679409
 C         2.399876        -0.736183         1.150400
 H        -0.545327         0.682564         0.525212
 H        -0.174748         0.152647        -1.140990
 H        -0.555743        -1.051178        -0.119195
 H         2.516565         2.039742        -0.359433
 H         1.857417         2.022222         1.275999
 H         4.060681         0.453311         1.800749
 H         5.190187        -0.651013        -0.067021
 H         3.786786         0.495192        -1.930560
 H         3.670311        -1.134680        -2.052453
 H         1.685045        -0.810237         1.934638
