19
Iteration:  4285
 C         0.009921        -0.205196        -0.043387
 C         1.504606         0.018217         0.027531
 C         2.233491         1.357168         0.470359
 C         3.404128         0.386595         0.995691
 C         4.024023        -0.568458        -0.017628
 C         3.499081        -0.278816        -1.421490
 O         2.058830        -0.343793        -1.282251
 O         3.271417        -1.704563         0.682543
 C         2.389704        -0.734956         1.141465
 H        -0.409563         0.538800        -0.789035
 H        -0.163998        -1.204295        -0.436640
 H        -0.519180         0.049778         0.928488
 H         2.363153         2.061788        -0.450220
 H         1.692902         1.893043         1.295262
 H         3.934300         0.530193         1.928580
 H         5.119836        -0.603740        -0.020441
 H         3.857594         0.759466        -1.675613
 H         3.687325        -0.903900        -2.251016
 H         1.838067        -0.963883         2.043413
