19
Iteration:  4917charge 0 multiplicity 1
 C         0.109605        -0.316108        -0.002097
 C         1.551399         0.102329        -0.029840
 C         2.267904         1.402486         0.448056
 C         3.348135         0.461355         1.032015
 C         4.016435        -0.582277         0.028932
 C         3.504062        -0.339337        -1.366795
 O         2.043174        -0.269209        -1.292566
 O         3.159901        -1.734008         0.532182
 C         2.403285        -0.749283         1.235398
 H        -0.507371         0.036243        -0.966064
 H         0.049711        -1.396676         0.032121
 H        -0.479523         0.302613         0.724788
 H         2.611709         2.167939        -0.263399
 H         1.667706         2.011236         1.152555
 H         3.953771         0.616084         1.919231
 H         5.104080        -0.724425         0.156540
 H         3.755184         0.659125        -1.858848
 H         3.775844        -1.128566        -2.146388
 H         1.868921        -1.157768         2.071378
