19
Iteration:  2861
 C         0.017107        -0.128797        -0.067373
 C         1.508235         0.080726         0.001830
 C         2.215478         1.349353         0.436281
 C         3.314932         0.439648         1.065245
 C         4.032912        -0.540381         0.077849
 C         3.481164        -0.358519        -1.413374
 O         2.106139        -0.362430        -1.317804
 O         3.325695        -1.710492         0.582108
 C         2.361328        -0.780854         1.181644
 H        -0.644192         0.228249         0.841050
 H        -0.493175         0.494122        -0.738807
 H        -0.219110        -1.272735        -0.068380
 H         2.588026         2.050831        -0.358486
 H         1.705488         1.776458         1.311585
 H         3.841799         0.882874         1.926483
 H         5.110162        -0.648575         0.088641
 H         3.835491         0.584087        -1.879386
 H         3.793416        -1.310750        -1.958843
 H         1.864357        -1.269571         2.023651
