19
Iteration:  2867
 C         0.039986        -0.089894        -0.066741
 C         1.564658         0.073185         0.044759
 C         2.237993         1.303357         0.454986
 C         3.284786         0.477252         1.050076
 C         4.011043        -0.542145         0.041350
 C         3.482157        -0.368256        -1.338285
 O         2.058853        -0.386826        -1.331350
 O         3.346790        -1.661307         0.567105
 C         2.371797        -0.814588         1.178467
 H        -0.339575         0.227561         0.873877
 H        -0.427643         0.468813        -0.978955
 H        -0.216760        -1.085319        -0.304781
 H         2.346931         2.002460        -0.357579
 H         1.502971         1.692394         1.203198
 H         3.832556         0.811893         1.936247
 H         5.120293        -0.645886         0.158404
 H         3.901443         0.497569        -1.916666
 H         3.610515        -1.273943        -1.899326
 H         1.737269        -1.308716         1.943062
