19
Iteration:  1013
 C        -0.014393        -0.034588        -0.128421
 C         1.497763        -0.019086         0.028410
 C         2.203027         1.340066         0.497487
 C         3.314491         0.435092         0.999108
 C         4.060330        -0.493046         0.031361
 C         3.457647        -0.371243        -1.399382
 O         2.099519        -0.577510        -1.298030
 O         3.398765        -1.653218         0.635922
 C         2.340414        -0.689233         1.188926
 H        -0.737418         0.040510         0.851090
 H        -0.278010         0.880073        -0.664253
 H        -0.386641        -0.877334        -0.758092
 H         2.477428         2.219124        -0.201414
 H         1.777744         1.860366         1.348666
 H         3.878607         0.783075         1.958748
 H         5.131065        -0.584204         0.143190
 H         3.673371         0.499960        -1.971862
 H         3.871219        -1.117130        -2.096952
 H         1.776615        -0.957015         2.180211
