19
Iteration:  3074charge 0 multiplicity 1
 C         0.035566        -0.078457        -0.024337
 C         1.575020        -0.044687        -0.011182
 C         2.223644         1.289365         0.349159
 C         3.271728         0.481511         1.132541
 C         4.073857        -0.585280         0.081686
 C         3.486092        -0.261553        -1.331584
 O         1.980785        -0.440226        -1.330997
 O         3.336337        -1.669985         0.594618
 C         2.381043        -0.765239         1.111590
 H        -0.320452         0.154691         0.974093
 H        -0.115365         0.882577        -0.636638
 H        -0.320160        -0.957816        -0.463949
 H         2.519487         1.869653        -0.567818
 H         1.524119         1.887781         1.020532
 H         3.842399         0.926780         2.036195
 H         5.228828        -0.702059         0.125783
 H         3.816443         0.685955        -1.642725
 H         3.731973        -1.142652        -2.002817
 H         1.916057        -1.193940         2.048569
