19
Iteration:  4873charge 0 multiplicity 1
 C        -0.010277        -0.081155        -0.041360
 C         1.505653         0.049701        -0.075236
 C         2.222370         1.389039         0.480365
 C         3.324211         0.398989         1.106991
 C         4.063471        -0.544292         0.048539
 C         3.436693        -0.318732        -1.338057
 O         2.018439        -0.403528        -1.370877
 O         3.381028        -1.753437         0.630130
 C         2.417726        -0.787691         1.091682
 H        -0.670564         0.704884        -0.656842
 H        -0.152705        -1.128171        -0.293429
 H        -0.307677         0.106912         1.003563
 H         2.423707         2.274980        -0.158055
 H         1.671835         1.816434         1.352513
 H         3.854551         0.920966         1.877995
 H         5.122294        -0.810011        -0.002083
 H         3.851833         0.630599        -1.748246
 H         3.686953        -1.146078        -2.063993
 H         2.073937        -1.053933         2.065623
