19
Iteration:  2089charge 0 multiplicity 1
 C         0.004736        -0.177611         0.105543
 C         1.512498         0.040489        -0.105551
 C         2.304956         1.362385         0.379426
 C         3.331820         0.442196         1.054706
 C         4.062189        -0.566554         0.080850
 C         3.516004        -0.323905        -1.331753
 O         2.072438        -0.409340        -1.394379
 O         3.255087        -1.684616         0.585865
 C         2.319262        -0.713960         1.145443
 H        -0.420350        -0.174017         1.105755
 H        -0.624729         0.692076        -0.398804
 H        -0.202038        -1.210472        -0.325685
 H         2.698081         1.994661        -0.357839
 H         1.837295         1.858956         1.243253
 H         3.851927         0.915926         2.004885
 H         5.109043        -0.638429         0.258885
 H         3.841935         0.707920        -1.776662
 H         3.737653        -1.148879        -2.023657
 H         1.775567        -1.171086         2.058415
