19
Iteration:  4766
 C         0.109914        -0.262778         0.045338
 C         1.516633         0.036205        -0.054519
 C         2.243264         1.374634         0.464060
 C         3.347747         0.417945         1.052711
 C         3.966670        -0.532845         0.063227
 C         3.546117        -0.397408        -1.338887
 O         2.076154        -0.207171        -1.334537
 O         3.203655        -1.713217         0.507136
 C         2.338737        -0.725198         1.140107
 H        -0.476350        -0.002739        -0.764783
 H        -0.082986        -1.310660         0.006993
 H        -0.367887         0.120313         1.017242
 H         2.648893         2.121826        -0.279535
 H         1.905521         1.807105         1.437690
 H         3.932428         0.964737         1.867697
 H         5.056242        -0.762831         0.003271
 H         3.894117         0.507470        -1.927412
 H         3.793797        -1.386064        -1.901725
 H         1.848095        -1.170566         2.112064
