19
Iteration:  1365
 C         0.069610        -0.180483        -0.011020
 C         1.572783        -0.021911         0.007179
 C         2.244634         1.349474         0.241598
 C         3.400104         0.493210         1.046518
 C         4.024038        -0.585564         0.096945
 C         3.489352        -0.305350        -1.281001
 O         2.060978        -0.417210        -1.291187
 O         3.162628        -1.696115         0.593639
 C         2.387989        -0.691081         1.176332
 H        -0.458252        -0.499674         1.007689
 H        -0.388290         0.724626        -0.361901
 H        -0.182027        -0.925921        -0.786169
 H         2.430562         2.045238        -0.633792
 H         1.626217         1.929312         0.881880
 H         3.883667         0.870233         1.947833
 H         5.061460        -0.763723        -0.010369
 H         3.877739         0.738711        -1.525411
 H         3.841524        -0.995123        -2.024454
 H         1.928307        -0.933025         2.152809
