19
Iteration:  4951charge 0 multiplicity 1
 C         0.007140        -0.107483        -0.103636
 C         1.547064         0.064915        -0.026526
 C         2.248554         1.309836         0.495185
 C         3.359672         0.374907         1.025755
 C         4.084346        -0.465872        -0.012480
 C         3.451903        -0.310590        -1.396154
 O         2.007935        -0.419043        -1.282513
 O         3.306469        -1.688832         0.637455
 C         2.390020        -0.763068         1.178383
 H        -0.372583         0.486882        -0.987367
 H        -0.203941        -1.162333        -0.077353
 H        -0.387530         0.206588         0.938216
 H         2.482865         2.160940        -0.182546
 H         1.600528         1.559621         1.361935
 H         3.917296         0.623271         1.969320
 H         5.161313        -0.652525         0.162882
 H         3.840956         0.690028        -1.783594
 H         3.567093        -1.155463        -2.161034
 H         1.762979        -1.181334         1.957004
