19
Iteration:  4171charge 0 multiplicity 1
 C         0.014948        -0.224246        -0.041239
 C         1.505848         0.055865        -0.018455
 C         2.271058         1.433711         0.543763
 C         3.354920         0.488618         0.984920
 C         4.009440        -0.615097        -0.023725
 C         3.498510        -0.308002        -1.325428
 O         2.052077        -0.387754        -1.295545
 O         3.271105        -1.757500         0.525714
 C         2.380182        -0.651160         1.201034
 H        -0.552552         0.041452        -0.967768
 H         0.056778        -1.394601        -0.055920
 H        -0.633802         0.096267         0.841050
 H         2.559248         2.154497        -0.186355
 H         1.710953         1.913691         1.354365
 H         4.040692         0.778419         1.835025
 H         5.127342        -0.746161         0.017968
 H         4.070695         0.562675        -1.719675
 H         3.724716        -1.216991        -1.960030
 H         1.766569        -0.938308         2.108699
