19
Iteration:  1209charge 0 multiplicity 1
 C         0.031406        -0.187223        -0.030253
 C         1.498972         0.011216        -0.048660
 C         2.253684         1.312172         0.372419
 C         3.337803         0.448782         1.010028
 C         4.063168        -0.539250         0.118733
 C         3.500989        -0.365878        -1.327471
 O         2.052773        -0.339558        -1.306244
 O         3.294839        -1.712143         0.634709
 C         2.335601        -0.657675         1.097552
 H        -0.250492        -0.234602         1.068890
 H        -0.491990         0.529255        -0.574316
 H        -0.303440        -1.186350        -0.287742
 H         2.595800         1.890830        -0.549513
 H         1.729649         1.987788         1.037773
 H         3.896622         0.772506         1.967583
 H         5.143591        -0.815988         0.233784
 H         3.787151         0.705164        -1.721778
 H         3.762334        -1.240919        -1.956982
 H         1.771934        -0.764427         2.020875
