19
Iteration:  2190charge 0 multiplicity 1
 C         0.002253        -0.019785        -0.059245
 C         1.502400        -0.041991        -0.006747
 C         2.221814         1.311107         0.436932
 C         3.318294         0.444384         1.070372
 C         4.052575        -0.494107         0.054314
 C         3.473527        -0.378791        -1.337205
 O         2.089653        -0.457601        -1.327662
 O         3.314332        -1.701647         0.524271
 C         2.408285        -0.719927         1.182425
 H        -0.180706         0.335375         0.982108
 H        -0.518470         0.737768        -0.773462
 H        -0.530255        -0.964971        -0.196297
 H         2.450082         2.081282        -0.264325
 H         1.629194         1.764186         1.261156
 H         3.882219         1.012036         1.908991
 H         5.102810        -0.660239         0.115981
 H         3.691188         0.577755        -1.818029
 H         3.824857        -1.328333        -1.760209
 H         1.901515        -1.142800         2.106148
