19
Iteration:  2881charge 0 multiplicity 1
 C         0.126888        -0.006555        -0.106806
 C         1.549942        -0.126992        -0.046336
 C         2.144806         1.315588         0.474881
 C         3.338748         0.440422         1.134180
 C         4.027130        -0.436028         0.061256
 C         3.463823        -0.415296        -1.367288
 O         1.971003        -0.399499        -1.282959
 O         3.360642        -1.677702         0.601400
 C         2.368406        -0.770647         1.080283
 H        -0.469522         0.321527         0.839686
 H        -0.067978         0.789500        -0.781564
 H        -0.335957        -1.035343        -0.334374
 H         2.476651         2.034929        -0.282296
 H         1.619768         1.817651         1.312329
 H         4.072169         0.793692         1.876849
 H         5.077446        -0.481286        -0.000052
 H         3.776019         0.488367        -1.807923
 H         3.897408        -1.292550        -1.844578
 H         1.870996        -1.130443         1.968897
