19
Iteration:   742charge 0 multiplicity 1
 C         0.097645        -0.123292         0.060205
 C         1.545330         0.054746        -0.082557
 C         2.236068         1.322293         0.318834
 C         3.252346         0.456706         1.079950
 C         4.030611        -0.493772         0.083420
 C         3.544113        -0.370671        -1.309566
 O         2.062567        -0.414986        -1.341036
 O         3.295043        -1.682599         0.623767
 C         2.294077        -0.771030         1.081109
 H        -0.131538        -0.008710         1.149002
 H        -0.612234         0.339305        -0.592298
 H        -0.089880        -1.200771         0.099127
 H         2.473988         2.011870        -0.571958
 H         1.660110         1.999306         1.009597
 H         3.838398         0.849733         1.946297
 H         5.160609        -0.625390         0.089407
 H         3.853474         0.669217        -1.677128
 H         3.912116        -1.147579        -1.880736
 H         1.672800        -1.144979         1.927903
