19
Iteration:  2224charge 0 multiplicity 1
 C         0.067818        -0.109722        -0.003810
 C         1.543275         0.076417        -0.052524
 C         2.283753         1.372942         0.333644
 C         3.311206         0.486425         1.070495
 C         4.003303        -0.605515         0.078783
 C         3.407533        -0.300390        -1.329609
 O         2.053803        -0.415019        -1.367048
 O         3.319350        -1.764555         0.663654
 C         2.320938        -0.762818         1.146549
 H        -0.032357        -0.397607         1.099097
 H        -0.623975         0.736499        -0.267071
 H        -0.127086        -1.063512        -0.487821
 H         2.660400         2.008782        -0.470959
 H         1.767691         1.986987         1.085633
 H         3.959335         0.939067         1.858059
 H         5.101283        -0.646437         0.024887
 H         3.838199         0.623208        -1.706799
 H         3.942043        -0.946296        -2.029151
 H         1.748715        -1.178635         2.028557
