19
Iteration:  1188charge 0 multiplicity 1
 C         0.026875        -0.081400        -0.022442
 C         1.534498         0.056763        -0.076871
 C         2.142373         1.384531         0.470751
 C         3.311961         0.498281         1.057622
 C         4.050087        -0.533176         0.045532
 C         3.493798        -0.525327        -1.351986
 O         2.052926        -0.365864        -1.398015
 O         3.410859        -1.678259         0.700363
 C         2.353425        -0.765658         1.114786
 H        -0.488838        -0.162412         1.003576
 H        -0.329380         0.695224        -0.569047
 H        -0.313577        -0.946824        -0.572351
 H         2.316461         2.336448        -0.179789
 H         1.526443         1.633393         1.335738
 H         3.979048         0.884246         1.937295
 H         5.148252        -0.665139         0.004033
 H         3.864036         0.379532        -1.941129
 H         3.742126        -1.525113        -1.716620
 H         1.646691        -1.247813         1.814683
