19
Iteration:  3429charge 0 multiplicity 1
 C         0.089624        -0.224332         0.035378
 C         1.577807        -0.022610        -0.072144
 C         2.251131         1.358794         0.433050
 C         3.332381         0.451539         1.081277
 C         3.993475        -0.647639         0.032159
 C         3.509152        -0.276396        -1.458396
 O         2.064553        -0.295200        -1.388047
 O         3.253565        -1.718125         0.691227
 C         2.302071        -0.690453         1.143292
 H        -0.250939         0.245119         0.983502
 H        -0.464694         0.204567        -0.770709
 H        -0.143895        -1.459837         0.164204
 H         2.507078         2.208021        -0.316008
 H         1.707317         1.834331         1.299186
 H         3.990576         0.819643         1.906905
 H         5.189676        -0.745135         0.135903
 H         3.710769         0.730178        -1.711329
 H         3.864746        -1.145408        -2.087135
 H         1.593332        -0.784608         2.008385
