19
Iteration:  4642
 C         0.060710        -0.096226         0.024164
 C         1.546399         0.018579        -0.022786
 C         2.281884         1.378798         0.453280
 C         3.269691         0.433071         1.090571
 C         3.945107        -0.485576         0.002947
 C         3.474666        -0.334903        -1.399331
 O         2.012161        -0.361593        -1.433878
 O         3.360575        -1.745823         0.674294
 C         2.407732        -0.821949         1.179603
 H        -0.592541         0.762707        -0.225475
 H        -0.152449        -0.884356        -0.687620
 H        -0.339370        -0.525040         0.865321
 H         2.517816         2.097449        -0.357566
 H         1.662451         1.893961         1.259084
 H         3.957920         0.674351         1.876149
 H         4.993086        -0.699702         0.109895
 H         3.947434         0.629083        -1.786431
 H         3.747009        -1.180578        -2.145273
 H         1.923217        -1.070173         2.106354
