19
Iteration:  4370charge 0 multiplicity 1
 C        -0.025657         0.014805        -0.127750
 C         1.453560        -0.000814         0.063253
 C         2.175218         1.241067         0.469522
 C         3.391191         0.409288         0.975515
 C         4.090538        -0.546284         0.033916
 C         3.396049        -0.200992        -1.312061
 O         2.028713        -0.459137        -1.246170
 O         3.413445        -1.746886         0.551367
 C         2.431131        -0.801724         1.175861
 H        -0.270887         0.477262        -1.148132
 H        -0.590716        -0.981388        -0.146787
 H        -0.465993         0.568917         0.651257
 H         2.508295         1.835600        -0.339935
 H         1.671304         1.866660         1.158140
 H         3.814029         0.875745         1.882249
 H         5.195389        -0.466959        -0.129401
 H         3.693725         0.865748        -1.523014
 H         3.720965        -0.950688        -2.040546
 H         2.170189        -1.108630         2.220395
