19
Iteration:   618
 C        -0.019434        -0.183054         0.098590
 C         1.513797         0.039702        -0.113347
 C         2.255239         1.302257         0.320953
 C         3.336466         0.433613         1.128986
 C         4.047074        -0.554581         0.103873
 C         3.568268        -0.319833        -1.360867
 O         2.065449        -0.313691        -1.401892
 O         3.344975        -1.694132         0.625530
 C         2.262406        -0.753490         1.132514
 H        -0.331489         0.273320         0.995248
 H        -0.753331         0.223685        -0.599226
 H        -0.152930        -1.259469         0.101786
 H         2.508114         2.087464        -0.505844
 H         1.597300         1.741845         1.097360
 H         3.828148         0.782502         2.056232
 H         5.121203        -0.581777         0.157335
 H         4.020433         0.618574        -1.881510
 H         3.823518        -1.119185        -1.985473
 H         1.672002        -1.134652         2.056318
