19
Iteration:   138
 C         0.030747        -0.107787        -0.002974
 C         1.528711         0.073099        -0.075195
 C         2.174817         1.343131         0.482452
 C         3.222656         0.442144         1.045156
 C         4.040782        -0.421972         0.043576
 C         3.489953        -0.408460        -1.396654
 O         2.040907        -0.389478        -1.317692
 O         3.429675        -1.764695         0.682476
 C         2.398174        -0.781365         1.061035
 H        -0.262422         0.512721         0.879948
 H        -0.475428         0.304712        -0.914241
 H        -0.470166        -1.220406         0.084032
 H         2.631330         2.060689        -0.438842
 H         1.574471         1.984006         1.257103
 H         3.814471         0.692988         2.011213
 H         5.145155        -0.371790         0.136748
 H         3.800310         0.548804        -1.943338
 H         3.724115        -1.432597        -1.932416
 H         1.825368        -1.199253         1.938340
