19
Iteration:  1012charge 0 multiplicity 1
 C        -0.024047        -0.037539        -0.122316
 C         1.497523        -0.020749         0.027941
 C         2.211517         1.334008         0.485936
 C         3.318193         0.433961         1.007236
 C         4.048340        -0.486757         0.038010
 C         3.461347        -0.361063        -1.403145
 O         2.104646        -0.583350        -1.294746
 O         3.398580        -1.655465         0.627969
 C         2.335031        -0.689521         1.191369
 H        -0.698892         0.065081         0.836711
 H        -0.323505         0.896100        -0.652958
 H        -0.392400        -0.871980        -0.757846
 H         2.494826         2.188457        -0.224048
 H         1.797091         1.866928         1.390264
 H         3.847321         0.792386         1.936995
 H         5.159504        -0.586596         0.129193
 H         3.672362         0.509534        -1.951151
 H         3.893147        -1.130797        -2.076944
 H         1.791620        -0.905456         2.143378
