19
Iteration:   498charge 0 multiplicity 1
 C        -0.007171        -0.118610         0.080322
 C         1.535390         0.031493        -0.089003
 C         2.212157         1.321550         0.437433
 C         3.244007         0.411196         1.160969
 C         4.122904        -0.503270         0.075909
 C         3.526669        -0.377994        -1.446304
 O         2.060597        -0.388645        -1.390387
 O         3.327333        -1.618289         0.618766
 C         2.338477        -0.777774         1.080260
 H        -0.232952         0.131987         1.071339
 H        -0.632804         0.503350        -0.556355
 H        -0.313245        -1.124506        -0.231104
 H         2.775275         1.885743        -0.366723
 H         1.537942         1.793031         1.097564
 H         3.794750         0.811245         2.081163
 H         5.170161        -0.713540         0.315276
 H         3.993725         0.580046        -1.840728
 H         3.758115        -1.253400        -1.992201
 H         1.736349        -1.257658         1.971172
