19
Iteration:  1760charge 0 multiplicity 1
 C         0.013463        -0.084321        -0.044530
 C         1.491302         0.047126        -0.009771
 C         2.228626         1.319925         0.406948
 C         3.312749         0.440465         1.062121
 C         4.034075        -0.491881         0.099491
 C         3.488255        -0.436040        -1.323702
 O         2.085215        -0.464935        -1.373552
 O         3.381963        -1.643571         0.615718
 C         2.311854        -0.726805         1.153053
 H        -0.407957         0.350027         0.917669
 H        -0.479928         0.570810        -0.849751
 H        -0.252076        -1.136489        -0.172939
 H         2.491682         2.067008        -0.465996
 H         1.710673         1.805379         1.306587
 H         3.891085         0.754348         1.937243
 H         5.099727        -0.544898         0.018516
 H         4.025731         0.429216        -1.908566
 H         3.735843        -1.313644        -1.939123
 H         1.612200        -0.988847         1.962317
