19
Iteration:   574
 C         0.030967        -0.054646        -0.097044
 C         1.536228         0.015331        -0.059158
 C         2.248655         1.312423         0.422299
 C         3.290688         0.463783         1.104511
 C         4.105235        -0.484195         0.041560
 C         3.474963        -0.354738        -1.328576
 O         1.979435        -0.476612        -1.250901
 O         3.356726        -1.692517         0.593138
 C         2.358904        -0.781317         1.099999
 H        -0.336474         0.064723         0.890150
 H        -0.493628         0.635086        -0.747539
 H        -0.190030        -1.089262        -0.388913
 H         2.440968         2.222441        -0.237132
 H         1.649365         1.753189         1.254575
 H         3.842629         0.929905         1.961490
 H         5.170481        -0.630200         0.209495
 H         3.759721         0.743885        -1.733690
 H         3.905785        -0.941795        -2.034311
 H         1.787924        -1.306763         1.950189
