19
Iteration:  2013
 C         0.019309         0.005850        -0.081325
 C         1.517400         0.008505         0.003648
 C         2.192324         1.337999         0.474439
 C         3.315812         0.432855         1.079094
 C         4.124857        -0.509562         0.016369
 C         3.553091        -0.311272        -1.380593
 O         1.933181        -0.517408        -1.266346
 O         3.396457        -1.696050         0.606999
 C         2.351277        -0.772707         1.102862
 H        -0.481208         0.299987         0.826906
 H        -0.326137         0.776215        -0.910234
 H        -0.313084        -1.036058        -0.335071
 H         2.456297         2.071456        -0.248948
 H         1.501653         1.666049         1.333259
 H         3.989048         0.791498         1.957901
 H         5.125282        -0.747324         0.201785
 H         3.752485         0.497632        -2.050333
 H         3.845720        -1.115374        -2.034020
 H         1.751434        -1.013262         2.039971
