19
Iteration:   711
 C         0.038726        -0.008932        -0.000013
 C         1.531379        -0.071913        -0.106574
 C         2.249833         1.311311         0.378759
 C         3.214145         0.431582         1.125968
 C         4.038354        -0.412993         0.075032
 C         3.508163        -0.404038        -1.331481
 O         2.030292        -0.472092        -1.379696
 O         3.403116        -1.662909         0.680836
 C         2.326651        -0.792549         1.116502
 H        -0.081442         0.182949         1.110890
 H        -0.523447         0.876191        -0.365292
 H        -0.481887        -0.960990        -0.322844
 H         2.577583         1.823147        -0.472104
 H         1.554594         1.922818         1.013361
 H         3.831379         0.731562         2.045195
 H         5.191926        -0.491332        -0.053093
 H         3.827776         0.690386        -1.780806
 H         3.922543        -0.939030        -2.217275
 H         1.823130        -1.231540         1.929643
