19
Iteration:  1929charge 0 multiplicity 1
 C         0.099924        -0.142481        -0.155409
 C         1.549450         0.045997         0.072090
 C         2.234735         1.350759         0.466602
 C         3.334693         0.490394         1.032039
 C         4.038052        -0.499326         0.039491
 C         3.444363        -0.404395        -1.439100
 O         2.012047        -0.405418        -1.367177
 O         3.287419        -1.724712         0.634748
 C         2.399852        -0.736140         1.235127
 H        -0.452378         0.077386         0.781588
 H        -0.305919         0.602857        -0.921420
 H        -0.076291        -1.188554        -0.410473
 H         2.372136         2.220546        -0.189288
 H         1.621976         1.714133         1.401087
 H         3.962267         0.895679         1.822354
 H         5.054398        -0.725219         0.431719
 H         3.694684         0.620760        -1.699694
 H         3.595797        -1.357467        -1.981706
 H         1.992031        -0.956948         2.273996
