19
Iteration:  1954
 C         0.026830        -0.225612         0.021377
 C         1.549142         0.026680        -0.006188
 C         2.227306         1.353469         0.448683
 C         3.323245         0.442093         1.040869
 C         4.056794        -0.586576        -0.011604
 C         3.510518        -0.387821        -1.316263
 O         2.121199        -0.343243        -1.320927
 O         3.246486        -1.625351         0.601852
 C         2.314326        -0.684281         1.064424
 H        -0.461992         0.289988         1.023608
 H        -0.491136         0.211303        -0.813598
 H        -0.189914        -1.321260         0.076246
 H         2.570838         2.094405        -0.334642
 H         1.617907         1.871879         1.128956
 H         3.968654         0.801600         1.823065
 H         5.147694        -0.985261         0.084399
 H         3.861019         0.600771        -1.510996
 H         3.749424        -1.310633        -1.969400
 H         1.710432        -0.925482         1.902270
