19
Iteration:   384
 C        -0.009120        -0.061739        -0.019159
 C         1.486459        -0.020614        -0.040820
 C         2.210589         1.284660         0.393738
 C         3.308996         0.415078         1.092130
 C         4.068724        -0.460320         0.059607
 C         3.527910        -0.367462        -1.360647
 O         1.989224        -0.404470        -1.365429
 O         3.439134        -1.657554         0.644616
 C         2.326877        -0.785453         1.118866
 H        -0.242040         0.048772         1.054725
 H        -0.464698         0.804257        -0.496235
 H        -0.343412        -0.856761        -0.572844
 H         2.447094         1.862548        -0.461085
 H         1.810035         1.768502         1.342572
 H         3.659210         0.654560         2.048670
 H         5.196408        -0.490583         0.147272
 H         3.852255         0.469666        -1.983521
 H         3.785303        -1.270093        -1.747765
 H         1.865035        -0.969323         2.076887
