19
Iteration:  3435charge 0 multiplicity 1
 C         0.119708        -0.217473         0.061586
 C         1.561097        -0.041683        -0.057675
 C         2.254984         1.359419         0.417515
 C         3.364389         0.429758         1.015872
 C         3.970904        -0.554239         0.031806
 C         3.478559        -0.313726        -1.406652
 O         2.100514        -0.303300        -1.357628
 O         3.264870        -1.715629         0.679714
 C         2.253476        -0.718594         1.147647
 H        -0.249207         0.216545         1.022575
 H        -0.442073         0.278499        -0.799640
 H        -0.148396        -1.174448        -0.070118
 H         2.421837         2.124093        -0.286974
 H         1.689768         1.827461         1.207652
 H         4.051687         0.686318         1.808618
 H         4.969816        -0.755476         0.093481
 H         3.781524         0.766044        -1.725074
 H         3.982675        -1.028843        -2.062552
 H         1.521919        -0.879550         1.940319
