19
Iteration:  1139
 C        -0.009059        -0.017310        -0.185760
 C         1.483201         0.018749         0.011797
 C         2.226845         1.299322         0.432078
 C         3.369804         0.515248         1.022861
 C         4.053081        -0.545322         0.121809
 C         3.481330        -0.340278        -1.311007
 O         1.966389        -0.476404        -1.238036
 O         3.430834        -1.726994         0.616187
 C         2.374199        -0.779325         1.103385
 H        -0.537182         0.105892         0.686534
 H        -0.322786         0.663134        -1.097249
 H        -0.368879        -1.046330        -0.404853
 H         2.388656         1.891156        -0.384450
 H         1.788355         1.925183         1.236746
 H         3.898097         0.971462         1.775089
 H         5.155493        -0.387495         0.182764
 H         3.674101         0.708587        -1.636905
 H         3.734126        -1.208935        -1.973383
 H         1.946809        -1.107914         2.032035
