19
Iteration:  2928
 C         0.020918        -0.025814        -0.096950
 C         1.504190        -0.068391        -0.007405
 C         2.251249         1.311078         0.386132
 C         3.314560         0.459448         1.055235
 C         4.085172        -0.530897         0.060570
 C         3.397160        -0.255144        -1.324754
 O         2.040697        -0.453750        -1.256801
 O         3.367303        -1.741239         0.605049
 C         2.385032        -0.767708         1.115909
 H        -0.468074        -0.037213         0.881415
 H        -0.202329         0.943022        -0.519170
 H        -0.378540        -0.928694        -0.609131
 H         2.308980         1.958381        -0.519257
 H         1.698074         1.851447         1.146975
 H         3.832116         0.867908         1.927165
 H         5.169169        -0.568331         0.183023
 H         3.779615         0.665839        -1.580839
 H         3.858826        -1.022882        -1.984474
 H         1.839527        -1.008442         2.041860
