19
Iteration:   833charge 0 multiplicity 1
 C        -0.032944        -0.026657         0.027580
 C         1.519172        -0.062987        -0.103173
 C         2.268296         1.267416         0.292468
 C         3.236208         0.458530         1.076913
 C         4.019592        -0.445919         0.117614
 C         3.562425        -0.364930        -1.306706
 O         2.046447        -0.460337        -1.314903
 O         3.384188        -1.638071         0.587008
 C         2.354039        -0.769047         1.134308
 H        -0.197527         0.035344         1.107317
 H        -0.476962         0.805658        -0.639940
 H        -0.608543        -1.002542        -0.072503
 H         2.610670         2.023157        -0.388786
 H         1.590702         1.815214         1.037418
 H         3.689793         0.902232         1.974931
 H         5.196183        -0.616103         0.208867
 H         3.859203         0.464545        -1.951493
 H         3.857103        -1.344862        -1.722492
 H         1.932729        -1.106261         2.023926
