19
Iteration:   967
 C         0.097083        -0.128486         0.052863
 C         1.559956        -0.023347        -0.066662
 C         2.274017         1.341312         0.320391
 C         3.239961         0.484749         1.091899
 C         3.947253        -0.503010         0.061981
 C         3.546650        -0.306302        -1.365327
 O         2.036495        -0.428847        -1.345284
 O         3.351700        -1.745925         0.698986
 C         2.305308        -0.719137         1.084389
 H        -0.180551         0.224641         1.081215
 H        -0.495572         0.532028        -0.710311
 H        -0.239603        -1.189817        -0.022274
 H         2.459415         1.929999        -0.574467
 H         1.587492         1.991940         0.989757
 H         3.781724         0.756799         1.960397
 H         5.090713        -0.467043         0.134911
 H         3.901612         0.565765        -1.788033
 H         3.897795        -1.145320        -2.004068
 H         1.806366        -1.075439         1.923534
