19
Iteration:  1104charge 0 multiplicity 1
 C         0.122797        -0.179505         0.025833
 C         1.567936        -0.023114        -0.071614
 C         2.280767         1.281397         0.406527
 C         3.338009         0.532555         1.120478
 C         3.970760        -0.538922         0.089751
 C         3.558997        -0.249229        -1.402620
 O         2.045215        -0.504171        -1.348355
 O         3.184631        -1.670471         0.603367
 C         2.314923        -0.678967         1.142055
 H        -0.184624         0.469618         0.908354
 H        -0.405548         0.347823        -0.832633
 H        -0.079901        -1.257575        -0.050351
 H         2.523607         1.873185        -0.475683
 H         1.704175         1.856689         1.113889
 H         3.912077         0.873234         1.990370
 H         4.979373        -0.780064         0.249567
 H         3.746683         0.790658        -1.679490
 H         4.070884        -0.833075        -2.162630
 H         1.664088        -1.200351         1.936271
