19
Iteration:  4060
 C         0.038003        -0.066822        -0.130683
 C         1.585992        -0.023333         0.046114
 C         2.262708         1.252093         0.436356
 C         3.355019         0.487395         1.157141
 C         4.014400        -0.477178         0.033620
 C         3.400417        -0.303527        -1.374324
 O         2.010546        -0.481387        -1.258793
 O         3.332919        -1.648570         0.517962
 C         2.389550        -0.773571         1.174636
 H        -0.309227         0.905400        -0.444003
 H        -0.223230        -0.800980        -0.869206
 H        -0.558456        -0.375422         0.833951
 H         2.383701         1.855207        -0.417479
 H         1.763301         1.837985         1.197131
 H         3.966475         0.892396         1.901402
 H         5.080252        -0.651315         0.136503
 H         3.687089         0.607407        -1.755249
 H         3.709739        -1.101003        -2.100973
 H         1.915799        -1.153057         2.062933
