19
Iteration:  3127charge 0 multiplicity 1
 C         0.013699        -0.232792        -0.124488
 C         1.635463         0.010476        -0.029643
 C         2.236871         1.378173         0.509650
 C         3.370411         0.548227         1.103438
 C         4.022320        -0.542918        -0.024807
 C         3.407354        -0.488749        -1.380219
 O         2.072325        -0.312192        -1.277969
 O         3.263192        -1.690076         0.637569
 C         2.366677        -0.686523         1.156524
 H        -0.089706        -0.385902         0.888525
 H        -0.568803         0.743600        -0.476048
 H        -0.211187        -0.996462        -0.831008
 H         2.283884         2.008297        -0.370073
 H         1.468387         1.752529         1.152361
 H         4.036273         0.853540         2.016320
 H         5.085813        -0.575928        -0.072980
 H         3.990253         0.469033        -1.850007
 H         3.722425        -1.458907        -1.938252
 H         1.744338        -1.119246         2.009745
