19
Iteration:   320charge 0 multiplicity 1
 C        -0.019085        -0.211136        -0.143094
 C         1.495970         0.016744         0.018906
 C         2.306375         1.361114         0.477664
 C         3.352423         0.525774         1.041390
 C         4.024386        -0.546470         0.043171
 C         3.479802        -0.341781        -1.330872
 O         2.020622        -0.433346        -1.271643
 O         3.286822        -1.689251         0.578061
 C         2.424905        -0.720988         1.138168
 H        -0.584025         0.269352         0.721587
 H        -0.413519         0.261424        -1.071397
 H        -0.271286        -1.266134        -0.090095
 H         2.497890         2.107756        -0.350050
 H         1.788356         1.897279         1.403326
 H         3.986403         1.013669         1.863641
 H         5.119572        -0.800582         0.021154
 H         3.814379         0.671959        -1.606351
 H         3.840793        -1.021252        -2.075840
 H         1.985973        -1.093088         2.141194
