19
Iteration:  3603charge 0 multiplicity 1
 C         0.034208        -0.148582        -0.103615
 C         1.484376         0.034516         0.064592
 C         2.159929         1.370976         0.459444
 C         3.349342         0.454854         0.999588
 C         4.107364        -0.594304         0.043412
 C         3.458547        -0.368765        -1.345048
 O         2.024276        -0.366380        -1.283238
 O         3.335114        -1.749936         0.633616
 C         2.390814        -0.680217         1.106993
 H        -0.456116         0.543610         0.524833
 H        -0.225871         0.100037        -1.064789
 H        -0.424622        -1.195576         0.130262
 H         2.195146         2.025119        -0.408829
 H         1.966833         1.937827         1.322281
 H         4.030953         0.883489         1.737752
 H         5.165629        -0.846979         0.085116
 H         3.925886         0.617817        -1.651476
 H         3.880272        -0.894399        -2.154748
 H         1.837503        -1.054154         1.976893
