19
Iteration:   834charge 0 multiplicity 1
 C        -0.029424        -0.026397         0.031568
 C         1.519942        -0.070015        -0.095487
 C         2.266985         1.271729         0.289351
 C         3.235749         0.464711         1.084664
 C         4.018747        -0.438661         0.116195
 C         3.563247        -0.363298        -1.304934
 O         2.049693        -0.463807        -1.322701
 O         3.378621        -1.644641         0.587143
 C         2.353424        -0.766317         1.135509
 H        -0.171732         0.006673         1.078862
 H        -0.472250         0.815736        -0.623807
 H        -0.615880        -0.973666        -0.045016
 H         2.619475         1.993369        -0.368624
 H         1.618668         1.808177         1.000212
 H         3.649775         0.902274         1.960931
 H         5.161394        -0.629457         0.174325
 H         3.875217         0.511314        -1.962578
 H         3.866812        -1.366843        -1.731808
 H         1.936307        -1.114679         2.003529
