19
Iteration:  2327
 C         0.004087        -0.060862         0.000555
 C         1.506128         0.012505        -0.022739
 C         2.277742         1.425083         0.364169
 C         3.289647         0.459077         1.081302
 C         4.034982        -0.528856         0.077407
 C         3.457527        -0.296251        -1.323906
 O         2.008842        -0.461803        -1.308747
 O         3.430435        -1.825553         0.603791
 C         2.330322        -0.756939         1.083277
 H        -0.378967         0.695739         0.778225
 H        -0.364479         0.402028        -0.978897
 H        -0.395741        -1.126768         0.107115
 H         2.551784         1.794409        -0.735226
 H         1.811913         2.125405         1.116337
 H         3.737130         0.760786         2.003444
 H         5.198500        -0.653269         0.053297
 H         3.593573         0.748037        -1.530344
 H         4.024130        -1.077122        -1.871487
 H         1.852380        -1.045278         2.019714
