19
Iteration:   530
 C         0.067375        -0.055935        -0.197347
 C         1.532559         0.000747         0.014916
 C         2.151601         1.264534         0.491570
 C         3.331722         0.473489         0.992301
 C         4.084151        -0.547611         0.074578
 C         3.362626        -0.312541        -1.363465
 O         2.009104        -0.421129        -1.222763
 O         3.358030        -1.688076         0.640039
 C         2.462414        -0.807729         1.174047
 H        -0.538136        -0.057839         0.658693
 H        -0.087015         0.875964        -0.737751
 H        -0.162322        -0.918964        -0.831345
 H         2.347134         2.107174        -0.247508
 H         1.574481         1.836443         1.237688
 H         4.024858         1.009060         1.740240
 H         5.181503        -0.692904         0.045620
 H         3.880086         0.679365        -1.956864
 H         3.550641        -0.975616        -2.131451
 H         1.907705        -1.220976         2.120011
