19
Iteration:  4956
 C         0.028766        -0.032241        -0.100259
 C         1.543291         0.010806        -0.012841
 C         2.222802         1.309475         0.460869
 C         3.298211         0.375851         1.080321
 C         4.065023        -0.501605        -0.018878
 C         3.462086        -0.313336        -1.407411
 O         1.990974        -0.406330        -1.271392
 O         3.353165        -1.708795         0.625158
 C         2.413394        -0.774668         1.185474
 H        -0.503404         0.415673        -0.922712
 H        -0.285024        -1.118271        -0.268813
 H        -0.302019         0.245087         0.856330
 H         2.434050         2.155474        -0.210110
 H         1.574636         1.608247         1.295969
 H         4.040917         0.751373         1.825342
 H         5.153375        -0.505221         0.135282
 H         3.901163         0.606980        -1.751356
 H         3.714411        -1.028850        -2.161138
 H         1.825788        -1.101753         2.098620
