19
Iteration:  3796
 C        -0.026072         0.032367        -0.019544
 C         1.530233        -0.041675        -0.065612
 C         2.282349         1.268853         0.377696
 C         3.344640         0.452180         1.124886
 C         4.081177        -0.475851         0.048487
 C         3.415175        -0.258717        -1.348182
 O         2.047364        -0.574363        -1.320929
 O         3.366874        -1.683974         0.627230
 C         2.357236        -0.764869         1.133901
 H        -0.365522         1.042486         0.278074
 H        -0.420518        -0.160862        -1.037107
 H        -0.461260        -0.656007         0.728236
 H         2.550222         1.981022        -0.457945
 H         1.638157         1.665841         1.245789
 H         3.802410         0.698299         2.070347
 H         5.172845        -0.496056        -0.056007
 H         3.467163         0.683256        -1.880513
 H         3.820451        -1.047680        -2.081382
 H         1.819145        -1.052795         2.074448
