19
Iteration:  1796charge 0 multiplicity 1
 C         0.086818        -0.176495        -0.130708
 C         1.544550         0.050031         0.007216
 C         2.158497         1.388330         0.484186
 C         3.359155         0.471769         0.999753
 C         3.952176        -0.624541         0.003650
 C         3.441893        -0.436399        -1.422588
 O         2.103905        -0.324464        -1.296296
 O         3.331772        -1.689740         0.684252
 C         2.338907        -0.676444         1.245145
 H        -0.563161         0.348134         0.529503
 H        -0.114159         0.039411        -1.315970
 H        -0.128385        -1.304551        -0.065165
 H         2.292432         2.073293        -0.349891
 H         1.738250         2.025075         1.364206
 H         4.103132         0.770749         1.785089
 H         5.050986        -0.690840         0.106213
 H         3.954412         0.473425        -1.805760
 H         3.748237        -1.242906        -2.070405
 H         1.825322        -1.135173         2.184281
