19
Iteration:   567charge 0 multiplicity 1
 C        -0.006969        -0.075242        -0.133827
 C         1.490447         0.013126        -0.057454
 C         2.257696         1.325218         0.495907
 C         3.334839         0.461423         1.059120
 C         4.085127        -0.477147         0.038033
 C         3.452128        -0.307115        -1.336418
 O         2.019547        -0.506008        -1.269699
 O         3.338904        -1.680241         0.620712
 C         2.404318        -0.798044         1.137619
 H        -0.543075         0.094757         0.845219
 H        -0.397435         0.702832        -0.807738
 H        -0.296806        -1.002387        -0.615686
 H         2.596917         2.076761        -0.190486
 H         1.789199         1.745920         1.329495
 H         3.940437         0.869615         1.804904
 H         5.139963        -0.534456         0.242056
 H         3.521920         0.685833        -1.764640
 H         3.896653        -1.090590        -2.045652
 H         1.869422        -1.200098         1.956516
