19
Iteration:  4447charge 0 multiplicity 1
 C         0.056510        -0.185558         0.029645
 C         1.476902        -0.017277         0.015953
 C         2.160693         1.313175         0.386959
 C         3.351821         0.406631         1.032112
 C         3.974142        -0.562753         0.039561
 C         3.541258        -0.391921        -1.428182
 O         2.070903        -0.190833        -1.335833
 O         3.314980        -1.708156         0.632621
 C         2.395778        -0.729744         1.159558
 H        -0.588256         0.759646         0.052178
 H        -0.341589        -0.933512        -0.678868
 H        -0.084615        -0.522231         1.046781
 H         2.464932         1.927595        -0.462192
 H         1.698374         1.944975         1.127374
 H         3.995219         0.699478         1.836673
 H         5.067756        -0.690288         0.143483
 H         4.073035         0.504038        -1.817260
 H         3.704108        -1.269667        -2.097157
 H         1.813498        -0.941645         2.074911
