19
Iteration:  1749
 C         0.029356        -0.049921        -0.017432
 C         1.556903        -0.011542        -0.020734
 C         2.249620         1.358910         0.355171
 C         3.191699         0.491143         1.113800
 C         4.014538        -0.518878        -0.009515
 C         3.516374        -0.400746        -1.371003
 O         2.096956        -0.461386        -1.305772
 O         3.350203        -1.678885         0.667083
 C         2.324856        -0.798802         1.127423
 H        -0.276186         0.170659         1.057405
 H        -0.441053         0.714107        -0.719319
 H        -0.414344        -1.021137        -0.235613
 H         2.702771         2.045459        -0.486904
 H         1.599944         2.045094         1.011289
 H         3.795735         0.983148         1.874504
 H         5.081296        -0.567096         0.072512
 H         3.834760         0.618247        -1.793109
 H         3.987908        -1.225474        -1.875440
 H         1.837904        -1.286050         1.986284
