19
Iteration:  4363charge 0 multiplicity 1
 C        -0.032038         0.001073        -0.115938
 C         1.410552         0.041765         0.038375
 C         2.184681         1.247225         0.477456
 C         3.385819         0.413270         1.027519
 C         4.112681        -0.509047        -0.000095
 C         3.434747        -0.255864        -1.285669
 O         2.027767        -0.449144        -1.289242
 O         3.411152        -1.771464         0.562407
 C         2.427721        -0.781738         1.146145
 H        -0.372008         0.274356        -1.082699
 H        -0.285697        -0.978573         0.165095
 H        -0.679198         0.557434         0.715438
 H         2.446578         2.158273        -0.197516
 H         1.644272         1.763343         1.315599
 H         3.878662         0.805025         1.871622
 H         5.167220        -0.680528        -0.137946
 H         3.709474         0.749214        -1.740340
 H         3.807403        -0.912803        -2.033773
 H         2.036412        -1.014567         2.103556
