19
Iteration:  2105charge 0 multiplicity 1
 C         0.067959        -0.153535         0.054827
 C         1.568633         0.008332         0.026331
 C         2.211810         1.335243         0.380764
 C         3.363518         0.450343         1.086627
 C         3.966047        -0.516232         0.038290
 C         3.571190        -0.323021        -1.346731
 O         2.086507        -0.388268        -1.288243
 O         3.188821        -1.720345         0.571014
 C         2.333618        -0.699991         1.046850
 H        -0.055685         0.111371         1.150968
 H        -0.549507         0.404481        -0.656069
 H        -0.222139        -1.191462         0.002329
 H         2.500723         1.991075        -0.563103
 H         1.469531         1.944013         0.970641
 H         4.006509         0.674573         1.879925
 H         5.093475        -0.752295         0.087141
 H         3.992801         0.463743        -1.902205
 H         4.066163        -1.005385        -2.082144
 H         1.757981        -1.034752         1.949008
