19
Iteration:  2449
 C         0.014272         0.009458         0.027742
 C         1.546247        -0.003169        -0.057072
 C         2.227002         1.314506         0.419709
 C         3.303397         0.382913         1.043840
 C         4.053307        -0.438666         0.055754
 C         3.500032        -0.327799        -1.353185
 O         2.087339        -0.569868        -1.312643
 O         3.312758        -1.693555         0.593848
 C         2.299178        -0.731955         1.107789
 H        -0.152688         0.232649         1.015218
 H        -0.534305         0.660346        -0.779432
 H        -0.309072        -0.974448        -0.302437
 H         2.606716         2.186695        -0.169753
 H         1.728518         1.842348         1.249178
 H         3.887442         0.878980         1.814764
 H         5.142025        -0.495671         0.121144
 H         3.844514         0.688702        -1.683216
 H         3.876016        -1.184529        -1.845657
 H         1.650556        -1.013433         1.946581
