19
Iteration:   535
 C         0.083796        -0.038975        -0.229675
 C         1.519078        -0.006438         0.037474
 C         2.150154         1.257931         0.478284
 C         3.339271         0.491150         1.049804
 C         4.101480        -0.573941         0.007298
 C         3.419531        -0.309446        -1.401109
 O         1.978533        -0.421008        -1.208282
 O         3.350953        -1.673333         0.648791
 C         2.460515        -0.795821         1.223201
 H        -0.637236        -0.126439         0.651454
 H        -0.099156         0.869978        -0.840878
 H        -0.107243        -0.901415        -0.875824
 H         2.349878         2.008521        -0.261098
 H         1.578815         1.709528         1.314935
 H         3.936636         0.955430         1.775908
 H         5.190794        -0.668632         0.015978
 H         3.567301         0.651153        -1.750362
 H         3.565856        -1.042900        -2.305726
 H         1.961162        -1.162721         2.058236
