19
Iteration:  4040
 C        -0.005857        -0.179270        -0.093500
 C         1.504664         0.056247        -0.021344
 C         2.266814         1.400611         0.461399
 C         3.355705         0.387531         0.990997
 C         4.077994        -0.537894        -0.045685
 C         3.463237        -0.258860        -1.327866
 O         2.013932        -0.438627        -1.253422
 O         3.329782        -1.739067         0.688363
 C         2.348694        -0.728887         1.103930
 H        -0.503706         0.757186        -0.221079
 H        -0.242183        -0.817802        -0.945918
 H        -0.348500        -0.665057         0.864619
 H         2.512936         2.338690        -0.144800
 H         1.705385         1.819856         1.358257
 H         4.009609         0.708003         1.782383
 H         5.154695        -0.769592        -0.003487
 H         3.782699         0.774336        -1.658519
 H         3.855787        -0.963864        -2.084745
 H         1.899916        -0.936733         2.084275
