19
Iteration:  1032charge 0 multiplicity 1
 C         0.072831        -0.049895        -0.231382
 C         1.575949         0.005971        -0.020589
 C         2.125407         1.320813         0.493184
 C         3.357455         0.532855         1.076807
 C         3.985306        -0.547344         0.005141
 C         3.441462        -0.469115        -1.378349
 O         1.962017        -0.404561        -1.244425
 O         3.414916        -1.680742         0.715101
 C         2.448593        -0.764580         1.145309
 H        -0.358948         0.085246         0.712261
 H        -0.435079         0.800316        -0.772596
 H        -0.147887        -0.974518        -0.766505
 H         2.180329         2.137944        -0.246719
 H         1.486349         1.581769         1.462006
 H         3.989088         0.988917         1.788597
 H         5.145542        -0.646291        -0.134689
 H         3.873834         0.470756        -1.821981
 H         3.734706        -1.363138        -1.980476
 H         1.882000        -0.982535         1.959454
