19
Iteration:  2386charge 0 multiplicity 1
 C         0.070276        -0.171122        -0.119803
 C         1.537219         0.048100        -0.030861
 C         2.216030         1.346362         0.471880
 C         3.377169         0.502369         0.999465
 C         4.087338        -0.626704         0.064025
 C         3.424278        -0.429155        -1.297358
 O         2.005873        -0.324872        -1.279178
 O         3.326154        -1.703111         0.636682
 C         2.347656        -0.694575         1.129077
 H        -0.448268        -0.186486         0.824667
 H        -0.384558         0.704971        -0.699732
 H        -0.111000        -1.128686        -0.594814
 H         2.357193         2.136212        -0.322734
 H         1.635178         1.875298         1.335586
 H         4.036206         1.015125         1.802716
 H         5.112516        -0.834867        -0.039037
 H         3.702297         0.431336        -1.888136
 H         3.710200        -1.196773        -1.982662
 H         1.821887        -0.990857         2.054851
