19
Iteration:  2760charge 0 multiplicity 1
 C         0.022335         0.056924        -0.110995
 C         1.502014        -0.057990        -0.049942
 C         2.211784         1.346098         0.486712
 C         3.236673         0.448086         1.089623
 C         4.009831        -0.464628         0.013804
 C         3.418589        -0.351152        -1.355398
 O         2.049681        -0.445400        -1.322308
 O         3.483574        -1.756738         0.640694
 C         2.427565        -0.853056         1.175499
 H        -0.582059         0.179691         0.878812
 H        -0.286603         0.951757        -0.714786
 H        -0.557618        -0.814339        -0.525127
 H         2.355324         2.061130        -0.297383
 H         1.660649         1.917343         1.288564
 H         3.906982         0.728011         1.904733
 H         5.039705        -0.569072         0.050235
 H         3.850103         0.598393        -1.881880
 H         3.719463        -1.137927        -2.055846
 H         1.886219        -1.100890         2.072544
