19
Iteration:  3721charge 0 multiplicity 1
 C         0.099100        -0.244729        -0.102108
 C         1.543446         0.141789         0.018515
 C         2.230382         1.460205         0.424585
 C         3.366183         0.400444         0.979654
 C         4.000711        -0.587072         0.013703
 C         3.442471        -0.408950        -1.368134
 O         2.040538        -0.367372        -1.250952
 O         3.265827        -1.704754         0.680752
 C         2.374390        -0.665380         1.135835
 H        -0.261578        -0.457837         0.918894
 H        -0.552957         0.441006        -0.639595
 H         0.151235        -1.338822        -0.582782
 H         2.513894         2.271864        -0.297476
 H         1.785116         1.849865         1.416374
 H         4.036620         0.807001         1.711470
 H         5.051480        -0.760844         0.149596
 H         3.795316         0.384456        -1.986049
 H         3.576436        -1.307831        -2.022868
 H         1.782533        -0.805113         2.038485
