19
Iteration:  3480charge 0 multiplicity 1
 C        -0.052598         0.025292        -0.148199
 C         1.497717        -0.024535         0.025292
 C         2.286023         1.292732         0.462310
 C         3.332888         0.404975         1.115434
 C         4.035990        -0.441994        -0.010498
 C         3.435729        -0.359430        -1.368292
 O         2.010820        -0.549421        -1.232705
 O         3.421613        -1.636788         0.608890
 C         2.387695        -0.799948         1.113303
 H        -0.589373        -0.102467         0.835497
 H        -0.361503         1.064009        -0.495799
 H        -0.390889        -0.575589        -0.922597
 H         2.534595         2.001612        -0.302748
 H         1.739248         1.901413         1.170263
 H         4.008623         0.693755         1.917159
 H         5.061280        -0.222783        -0.029594
 H         3.743949         0.608658        -1.851950
 H         3.857356        -1.298020        -1.798848
 H         1.861388        -1.185332         1.995438
