19
Iteration:  1977
 C         0.010383        -0.174569         0.057896
 C         1.557558         0.040191        -0.090435
 C         2.287188         1.355504         0.331531
 C         3.299832         0.425810         1.084148
 C         4.008358        -0.515769         0.121190
 C         3.556715        -0.249730        -1.399929
 O         2.004107        -0.332028        -1.346949
 O         3.293645        -1.791352         0.634092
 C         2.355690        -0.776469         1.138289
 H        -0.424521         0.407100         1.029330
 H        -0.606238         0.116365        -0.781520
 H        -0.112135        -1.277871         0.216557
 H         2.628630         1.937286        -0.570821
 H         1.769619         2.023276         0.946248
 H         3.931961         0.882409         1.850259
 H         5.135037        -0.729863         0.160598
 H         3.852104         0.706445        -1.703688
 H         3.869298        -1.209004        -1.806195
 H         1.744157        -1.062034         1.953831
