19
Iteration:  5000charge 0 multiplicity 1
 C        -0.034261         0.061093         0.008861
 C         1.509792         0.022111        -0.088954
 C         2.238535         1.242258         0.457946
 C         3.276513         0.413065         1.080099
 C         4.005275        -0.454297         0.051322
 C         3.503570        -0.337259        -1.364704
 O         2.017120        -0.512039        -1.289350
 O         3.496776        -1.685288         0.561683
 C         2.319810        -0.773653         1.141546
 H        -0.372761         0.937569        -0.541972
 H        -0.434151        -0.791253        -0.665547
 H        -0.256232        -0.085770         1.011951
 H         2.691509         1.924418        -0.297763
 H         1.557590         1.757954         1.156516
 H         3.701473         0.713405         2.065105
 H         5.088128        -0.597860         0.103845
 H         3.626954         0.610724        -1.897679
 H         3.834742        -1.085703        -2.044895
 H         1.976090        -1.230060         2.122660
