19
Iteration:  1926
 C         0.093632        -0.122932        -0.157657
 C         1.549111         0.021215         0.079405
 C         2.233573         1.349628         0.483007
 C         3.310329         0.475186         1.035556
 C         4.059017        -0.509649         0.033087
 C         3.414113        -0.422645        -1.436319
 O         2.003299        -0.403731        -1.356399
 O         3.302723        -1.690253         0.643704
 C         2.407728        -0.737098         1.224002
 H        -0.491626         0.047607         0.637422
 H        -0.220399         0.643154        -0.897305
 H        -0.052063        -1.145721        -0.509138
 H         2.433273         2.133238        -0.239683
 H         1.587330         1.724240         1.385061
 H         4.003103         0.923633         1.807353
 H         5.054364        -0.778101         0.248318
 H         3.740520         0.632717        -1.640784
 H         3.740574        -1.302410        -1.971472
 H         1.959520        -0.939996         2.253134
