19
Iteration:   422
 C         0.088408        -0.052707        -0.222953
 C         1.505067         0.047816         0.001136
 C         2.140805         1.323287         0.548656
 C         3.341417         0.470287         1.014476
 C         4.043237        -0.546983         0.052971
 C         3.418691        -0.322095        -1.400841
 O         1.984119        -0.475105        -1.247999
 O         3.366992        -1.728623         0.590939
 C         2.485877        -0.723377         1.229621
 H        -0.593604         0.117287         0.600394
 H        -0.182233         0.573454        -1.105052
 H        -0.078817        -1.180493        -0.465365
 H         2.226707         2.210952        -0.237286
 H         1.706408         1.830839         1.402928
 H         3.797102         0.821583         2.041885
 H         5.117667        -0.685604         0.048661
 H         3.688564         0.607830        -1.823541
 H         3.714477        -1.179484        -2.105865
 H         2.166933        -1.134313         2.286000
