19
Iteration:  3383
 C         0.058917        -0.140546        -0.103972
 C         1.467569        -0.018829         0.047335
 C         2.263310         1.314173         0.464297
 C         3.316933         0.475406         1.057249
 C         4.067538        -0.471632        -0.019540
 C         3.491559        -0.366670        -1.442573
 O         2.024116        -0.346646        -1.207337
 O         3.307504        -1.688804         0.587338
 C         2.388647        -0.783698         1.179184
 H        -0.475677         0.673421         0.516355
 H        -0.157296         0.116074        -1.179826
 H        -0.438737        -1.170063         0.020548
 H         2.534343         1.980816        -0.365986
 H         1.690239         1.937427         1.163214
 H         3.803211         0.678279         1.970997
 H         5.133521        -0.750922         0.209646
 H         3.863807         0.466412        -1.979462
 H         3.690605        -1.354839        -1.915967
 H         1.859545        -1.025183         2.104532
