19
Iteration:  4756charge 0 multiplicity 1
 C         0.030062        -0.313661         0.065354
 C         1.524435         0.092957         0.034093
 C         2.250422         1.367981         0.474036
 C         3.344252         0.409485         1.079811
 C         4.058635        -0.555528         0.046199
 C         3.550990        -0.400260        -1.397689
 O         2.092364        -0.206246        -1.303379
 O         3.212945        -1.695946         0.506682
 C         2.292693        -0.713057         1.045499
 H        -0.352820         0.047846        -0.815158
 H         0.018754        -1.407885         0.171596
 H        -0.613085         0.123193         0.941717
 H         2.432606         2.011766        -0.423548
 H         1.780406         2.042542         1.221280
 H         4.071661         0.563818         1.960126
 H         5.155423        -0.739211         0.235593
 H         4.111410         0.429843        -1.975738
 H         3.686974        -1.385886        -1.949386
 H         1.665421        -0.816531         2.012347
