19
Iteration:  4969
 C         0.013423         0.022838        -0.064630
 C         1.525027        -0.057911         0.003589
 C         2.158165         1.284323         0.464791
 C         3.304317         0.513047         1.075231
 C         3.952379        -0.553850         0.025326
 C         3.462855        -0.322001        -1.363889
 O         2.041077        -0.397615        -1.323744
 O         3.459627        -1.743305         0.595962
 C         2.412017        -0.840986         1.174310
 H        -0.033933         0.957895        -0.782911
 H        -0.433912        -0.958167        -0.318320
 H        -0.465628         0.329991         0.833070
 H         2.448398         1.862662        -0.397126
 H         1.605449         1.930514         1.133687
 H         3.926851         0.882111         1.880503
 H         5.046462        -0.616198        -0.065991
 H         3.593800         0.737541        -1.718923
 H         3.819304        -1.089452        -1.997303
 H         2.009319        -1.255243         2.106433
