19
Iteration:  3763charge 0 multiplicity 1
 C         0.015221        -0.047141         0.011339
 C         1.522076        -0.000701        -0.010261
 C         2.226922         1.252886         0.341004
 C         3.288051         0.466219         0.997404
 C         4.072631        -0.504102         0.065406
 C         3.465937        -0.370865        -1.387534
 O         2.057942        -0.365270        -1.282109
 O         3.370060        -1.712923         0.638707
 C         2.333022        -0.765699         1.171483
 H        -0.420422         0.800789         0.600537
 H        -0.307241         0.069252        -1.074343
 H        -0.335090        -1.042512         0.367280
 H         2.345913         2.034063        -0.472322
 H         1.696830         1.847969         1.206913
 H         3.795205         0.657216         1.916694
 H         5.171367        -0.446397        -0.001579
 H         3.848714         0.464423        -1.938326
 H         3.851881        -1.333058        -1.923982
 H         1.882874        -1.088689         2.152922
