19
Iteration:  1238charge 0 multiplicity 1
 C         0.126950        -0.203295        -0.073289
 C         1.556149        -0.011406         0.013580
 C         2.311939         1.372616         0.361303
 C         3.354235         0.500974         1.087748
 C         3.963925        -0.570914         0.047772
 C         3.472638        -0.242190        -1.370773
 O         2.055967        -0.477946        -1.260573
 O         3.183540        -1.690226         0.599006
 C         2.377730        -0.685594         1.164691
 H        -0.308609         0.259255         0.809571
 H        -0.510721         0.234979        -1.024546
 H        -0.105400        -1.321442        -0.120376
 H         2.626102         1.892812        -0.487207
 H         1.634981         1.977541         1.024046
 H         3.926916         0.757565         1.918359
 H         5.003656        -0.961762         0.210578
 H         3.672720         0.759291        -1.594240
 H         3.880206        -0.847814        -2.225733
 H         1.845880        -0.903352         2.108915
