19
Iteration:  1697charge 0 multiplicity 1
 C        -0.029700        -0.084819        -0.138587
 C         1.545776         0.061515         0.010494
 C         2.190951         1.394696         0.415175
 C         3.325308         0.442784         1.061601
 C         4.079991        -0.565947         0.064464
 C         3.485414        -0.365050        -1.454291
 O         2.062155        -0.521099        -1.265300
 O         3.357554        -1.727576         0.665748
 C         2.357144        -0.674742         1.158052
 H        -0.330663        -0.148769         0.866370
 H        -0.444197         0.883165        -0.648733
 H        -0.450144        -1.022235        -0.557665
 H         2.374692         2.110126        -0.309845
 H         1.625525         1.959895         1.189610
 H         4.043030         0.829939         1.830103
 H         5.125699        -0.583219         0.330133
 H         3.782382         0.599210        -1.775718
 H         3.810204        -1.151598        -2.032720
 H         1.755486        -0.926481         2.103355
