19
Iteration:  1319charge 0 multiplicity 1
 C        -0.015013        -0.089278        -0.112032
 C         1.486586         0.027965        -0.059625
 C         2.227598         1.370263         0.444519
 C         3.294025         0.452484         1.096106
 C         4.088581        -0.541165         0.010651
 C         3.452010        -0.454017        -1.339348
 O         2.008959        -0.407726        -1.328668
 O         3.435906        -1.709133         0.695489
 C         2.374219        -0.706997         1.137138
 H        -0.397919         0.065725         1.001598
 H        -0.409151         0.811300        -0.689327
 H        -0.424286        -1.055412        -0.501628
 H         2.529147         2.171763        -0.305822
 H         1.653942         1.902534         1.152463
 H         4.029476         0.796373         1.914100
 H         5.211646        -0.585299         0.102669
 H         3.846909         0.473763        -1.846111
 H         3.688177        -1.314488        -1.953197
 H         1.723363        -1.030943         1.933011
