19
Iteration:  4328
 C         0.133317        -0.198016         0.045859
 C         1.575883        -0.001097        -0.004749
 C         2.234427         1.353742         0.525374
 C         3.251625         0.419763         1.172853
 C         3.988822        -0.458310        -0.045816
 C         3.476388        -0.410323        -1.423978
 O         2.048812        -0.251880        -1.399522
 O         3.278539        -1.705814         0.567810
 C         2.352756        -0.754364         1.133567
 H        -0.327305        -0.288871        -0.984548
 H         0.056701        -1.241601         0.384069
 H        -0.314650         0.582337         0.691046
 H         2.538378         2.046461        -0.287114
 H         1.723195         1.864420         1.314106
 H         3.968860         0.656703         1.944746
 H         5.053023        -0.730508        -0.014506
 H         3.893438         0.515037        -1.979068
 H         3.755214        -1.361538        -1.768888
 H         1.716071        -1.048320         1.969813
