19
Iteration:  3108charge 0 multiplicity 1
 C         0.047553        -0.188612        -0.015574
 C         1.523796         0.063089        -0.027250
 C         2.201210         1.323024         0.444776
 C         3.316175         0.463688         1.021766
 C         4.050669        -0.563481         0.090113
 C         3.516840        -0.383242        -1.349554
 O         1.995710        -0.352016        -1.391855
 O         3.322260        -1.676042         0.676642
 C         2.353667        -0.703208         1.076187
 H        -0.404626        -0.522226         0.986591
 H        -0.519153         0.680484        -0.423543
 H        -0.171362        -0.844156        -0.796409
 H         2.443554         2.212096        -0.199484
 H         1.858951         1.765695         1.454303
 H         4.051323         0.742622         1.808619
 H         5.219448        -0.729055         0.217694
 H         4.054078         0.344458        -1.927553
 H         3.795008        -1.365982        -1.854279
 H         1.924034        -0.886248         2.092595
