19
Iteration:  3211
 C         0.031841        -0.028191        -0.008917
 C         1.577925        -0.021491        -0.075669
 C         2.244987         1.270261         0.432661
 C         3.294487         0.490432         1.099048
 C         4.062069        -0.472221         0.099030
 C         3.457934        -0.290005        -1.313498
 O         2.044092        -0.503983        -1.296281
 O         3.341677        -1.667139         0.541996
 C         2.362520        -0.788072         1.093824
 H        -0.496738         0.684503         0.607024
 H        -0.453459         0.242319        -0.962533
 H        -0.495710        -1.017086         0.347972
 H         2.625337         1.881031        -0.433111
 H         1.522960         1.869076         1.019014
 H         3.803223         0.675889         2.054061
 H         5.186131        -0.529313         0.094323
 H         3.652218         0.566543        -1.917270
 H         3.836806        -1.215043        -1.708066
 H         1.733880        -1.270251         1.852358
