19
Iteration:  1527charge 0 multiplicity 1
 C         0.044256        -0.069116        -0.105780
 C         1.523962         0.013877        -0.007142
 C         2.117513         1.367094         0.446342
 C         3.336209         0.453707         0.992463
 C         4.046877        -0.512310         0.054954
 C         3.473681        -0.559776        -1.324715
 O         2.027788        -0.278118        -1.310611
 O         3.411869        -1.772720         0.681256
 C         2.385495        -0.701575         1.119421
 H        -0.333267        -0.133352         0.964297
 H        -0.527264         0.736505        -0.502780
 H        -0.245432        -1.017403        -0.613957
 H         2.246831         2.108426        -0.425517
 H         1.501369         1.841758         1.167724
 H         3.963321         0.795329         1.826758
 H         5.159465        -0.421187         0.039320
 H         3.968571         0.445815        -1.810749
 H         3.780380        -1.476741        -1.850524
 H         1.781826        -0.889218         1.974685
