19
Iteration:   637
 C         0.086185        -0.206268        -0.065716
 C         1.539289        -0.002754         0.001475
 C         2.211556         1.406941         0.472628
 C         3.298200         0.476337         1.002626
 C         4.035878        -0.528833         0.048578
 C         3.470273        -0.346039        -1.290189
 O         2.041048        -0.371191        -1.302103
 O         3.282043        -1.718548         0.653932
 C         2.399185        -0.739974         1.026433
 H        -0.365188         0.265038         0.844394
 H        -0.389376         0.368385        -0.919167
 H        -0.184037        -1.311836        -0.135998
 H         2.591735         1.994955        -0.380769
 H         1.669803         1.986540         1.297923
 H         3.946747         0.777312         1.900378
 H         5.172832        -0.691451        -0.018358
 H         3.815814         0.590846        -1.582693
 H         3.785232        -1.208698        -2.094674
 H         1.761081        -0.968104         1.915143
