19
Iteration:  2422
 C         0.026663        -0.079498        -0.083980
 C         1.571675        -0.044736         0.020567
 C         2.204208         1.383175         0.422017
 C         3.297841         0.495741         1.131596
 C         4.034116        -0.577043         0.046190
 C         3.455101        -0.391855        -1.422454
 O         2.000258        -0.392941        -1.373512
 O         3.369357        -1.708706         0.658013
 C         2.384439        -0.741382         1.174239
 H        -0.315403        -0.058471         1.049332
 H        -0.249339         0.804488        -0.580719
 H        -0.282925        -0.976832        -0.706255
 H         2.672945         1.905499        -0.415551
 H         1.732871         2.020312         1.211006
 H         3.861426         1.048475         1.902107
 H         5.156233        -0.692579         0.066898
 H         3.904654         0.615912        -1.705644
 H         3.679536        -1.364281        -1.978475
 H         1.698848        -1.131681         1.951847
