19
Iteration:  4640
 C         0.072863        -0.121897         0.016200
 C         1.532310         0.041094        -0.022920
 C         2.291511         1.380616         0.464641
 C         3.278676         0.421454         1.069384
 C         3.956551        -0.485637        -0.006011
 C         3.468656        -0.330362        -1.390402
 O         2.017576        -0.354479        -1.434570
 O         3.343201        -1.751463         0.691189
 C         2.411137        -0.817130         1.165859
 H        -0.586846         0.736198        -0.192493
 H        -0.211631        -0.950654        -0.737794
 H        -0.426279        -0.496942         0.964390
 H         2.472810         2.116394        -0.348199
 H         1.646762         1.912711         1.232146
 H         3.996842         0.723493         1.895441
 H         5.029639        -0.690727         0.078576
 H         3.965190         0.598123        -1.769667
 H         3.743837        -1.144326        -2.093434
 H         1.920048        -1.086405         2.105961
