19
Iteration:  3811
 C         0.103900        -0.027623        -0.101401
 C         1.564306        -0.019147        -0.011911
 C         2.296299         1.255971         0.435667
 C         3.311763         0.423009         1.072923
 C         3.957932        -0.455539         0.019695
 C         3.447433        -0.304527        -1.401689
 O         1.966904        -0.547173        -1.248576
 O         3.321700        -1.624446         0.589604
 C         2.374034        -0.752902         1.198291
 H        -0.310245         0.949250         0.033855
 H        -0.191918        -0.422390        -1.043552
 H        -0.314862        -0.789026         0.792410
 H         2.702638         2.072596        -0.237123
 H         1.629133         1.833803         1.127583
 H         4.121900         0.781573         1.771806
 H         5.051136        -0.547940         0.120580
 H         3.775001         0.666250        -1.676188
 H         3.957894        -0.938766        -2.041280
 H         1.751456        -1.215608         1.961960
