19
Iteration:  3597charge 0 multiplicity 1
 C        -0.002757        -0.208883        -0.068485
 C         1.483238         0.044548         0.013320
 C         2.229602         1.383754         0.475508
 C         3.360043         0.472074         0.990054
 C         4.057657        -0.607183         0.029128
 C         3.455405        -0.350850        -1.310325
 O         2.069193        -0.348747        -1.297776
 O         3.305180        -1.774748         0.645764
 C         2.402792        -0.662338         1.093040
 H        -0.468630         0.586336         0.582324
 H        -0.354056        -0.007325        -1.162038
 H        -0.274515        -1.212886         0.164997
 H         2.242506         2.133755        -0.355661
 H         1.717188         1.998462         1.322624
 H         4.027996         0.891065         1.751169
 H         5.150391        -0.786601         0.119348
 H         3.883483         0.644529        -1.642557
 H         3.771419        -0.983830        -2.213375
 H         1.945297        -1.064262         2.005645
