19
Iteration:  1136charge 0 multiplicity 1
 C        -0.008815        -0.036213        -0.182371
 C         1.477597         0.026622        -0.015569
 C         2.243338         1.307119         0.417740
 C         3.350692         0.488577         1.007457
 C         4.047979        -0.528242         0.092102
 C         3.497129        -0.312885        -1.298562
 O         1.979555        -0.490106        -1.213940
 O         3.398844        -1.733357         0.624191
 C         2.385924        -0.769091         1.114299
 H        -0.568115         0.131187         0.822122
 H        -0.305747         0.600829        -1.054402
 H        -0.376802        -1.053633        -0.344902
 H         2.373582         2.063916        -0.450577
 H         1.839266         1.952053         1.164822
 H         3.915191         0.850466         1.916714
 H         5.087051        -0.441633         0.154049
 H         3.701801         0.641634        -1.657848
 H         3.863882        -1.032627        -2.036322
 H         1.953362        -1.174510         2.108911
