19
Iteration:  4852charge 0 multiplicity 1
 C         0.042709         0.034639        -0.079923
 C         1.566472        -0.067397        -0.020141
 C         2.207791         1.270357         0.503844
 C         3.330156         0.376774         1.091659
 C         3.991356        -0.420123         0.019222
 C         3.437201        -0.364258        -1.419337
 O         2.023744        -0.484971        -1.236076
 O         3.396980        -1.622322         0.587057
 C         2.325705        -0.804541         1.100213
 H         0.057875         1.079224        -0.545361
 H        -0.361707        -0.774996        -0.646327
 H        -0.450206         0.023760         0.918756
 H         2.512957         2.040716        -0.261685
 H         1.639261         1.763988         1.347307
 H         4.061073         0.750630         1.860974
 H         5.096931        -0.462050         0.095824
 H         3.593706         0.597475        -1.801638
 H         3.884887        -1.186568        -2.085897
 H         1.878529        -1.345885         1.961200
