19
Iteration:  3191charge 0 multiplicity 1
 C         0.101603        -0.024182        -0.012267
 C         1.539052        -0.035770         0.001518
 C         2.255543         1.327010         0.365169
 C         3.241239         0.418607         1.127386
 C         4.023734        -0.482420         0.035661
 C         3.529127        -0.265994        -1.411669
 O         2.052337        -0.534748        -1.372541
 O         3.347882        -1.677108         0.635928
 C         2.302458        -0.816532         1.164728
 H        -0.325842         0.663592         0.700025
 H        -0.480464         0.412242        -0.993732
 H        -0.404359        -1.033376         0.346383
 H         2.417907         2.115510        -0.385378
 H         1.678252         1.737305         1.165045
 H         4.013241         0.804062         1.927981
 H         5.064781        -0.451180         0.164218
 H         3.578974         0.800931        -1.474001
 H         3.787224        -0.914594        -2.238074
 H         1.820373        -1.123651         2.127547
