19
Iteration:  4347charge 0 multiplicity 1
 C        -0.035543        -0.126682        -0.012358
 C         1.601343         0.027725        -0.066276
 C         2.241229         1.360098         0.568206
 C         3.369502         0.419776         1.065681
 C         4.024698        -0.543877         0.042395
 C         3.479506        -0.336253        -1.447088
 O         2.006869        -0.385229        -1.303668
 O         3.349508        -1.665001         0.594224
 C         2.379828        -0.785642         1.082478
 H        -0.435361        -0.028648        -1.076341
 H        -0.550527        -1.129612         0.310603
 H        -0.413118         0.633700         0.584556
 H         2.379617         2.210897        -0.050541
 H         1.602560         1.643591         1.410823
 H         4.004492         0.707886         1.974804
 H         5.155459        -0.476805         0.112682
 H         3.799713         0.680564        -1.743325
 H         3.718211        -1.250813        -2.074149
 H         1.776943        -1.287451         1.906337
