19
Iteration:   440charge 0 multiplicity 1
 C        -0.048421        -0.161046        -0.172008
 C         1.539806        -0.044561         0.024414
 C         2.274216         1.281381         0.472651
 C         3.435456         0.453066         1.041374
 C         4.012130        -0.495626        -0.038544
 C         3.468936        -0.298713        -1.347601
 O         2.054029        -0.436030        -1.226691
 O         3.309387        -1.658298         0.624042
 C         2.329365        -0.723554         1.163493
 H        -0.628058         0.226344         0.672625
 H        -0.216407         0.475753        -1.035245
 H        -0.481808        -1.143542        -0.185977
 H         2.339442         2.192040        -0.155370
 H         1.737021         1.851977         1.344603
 H         4.151115         0.874618         1.809295
 H         5.149747        -0.675135         0.001981
 H         3.908758         0.747964        -1.689903
 H         3.842088        -0.945552        -2.068665
 H         1.709134        -1.151158         2.030503
