19
Iteration:  2557
 C         0.089634        -0.108385        -0.030298
 C         1.566628        -0.013357        -0.030554
 C         2.238904         1.306103         0.404484
 C         3.313763         0.434516         1.108327
 C         4.006099        -0.508934         0.002697
 C         3.473698        -0.374825        -1.375900
 O         2.055024        -0.331264        -1.331134
 O         3.291083        -1.701837         0.643694
 C         2.322464        -0.766717         1.169149
 H        -0.361964        -0.080231         0.920853
 H        -0.407626         0.778934        -0.472005
 H        -0.318968        -1.017713        -0.453698
 H         2.592137         1.716924        -0.533599
 H         1.718395         1.899693         1.102045
 H         3.815387         0.947969         1.896259
 H         5.141352        -0.589770        -0.000609
 H         3.945956         0.555143        -1.840617
 H         3.853920        -1.291751        -1.919940
 H         1.810771        -0.930784         2.130326
