19
Iteration:  3486
 C         0.012245         0.082146        -0.132426
 C         1.475931        -0.014690        -0.003742
 C         2.273507         1.257895         0.473625
 C         3.297822         0.412379         1.076028
 C         3.990516        -0.440855        -0.008217
 C         3.419592        -0.362316        -1.343835
 O         2.000678        -0.549265        -1.234565
 O         3.429244        -1.628321         0.635523
 C         2.436841        -0.840698         1.116914
 H        -0.526004        -0.191826         0.750146
 H        -0.369942         1.032764        -0.490621
 H        -0.274461        -0.661748        -1.011684
 H         2.567075         2.042312        -0.293650
 H         1.734929         1.832062         1.281458
 H         3.971239         0.815994         1.852973
 H         5.147909        -0.322069         0.004425
 H         3.654721         0.521961        -1.920369
 H         3.954282        -1.137414        -1.904613
 H         1.847246        -1.145132         1.986628
