19
Iteration:  4813charge 0 multiplicity 1
 C        -0.026767         0.027773        -0.128282
 C         1.457427        -0.009231        -0.008010
 C         2.280706         1.308884         0.443154
 C         3.335142         0.403707         1.038665
 C         4.050933        -0.506004         0.040849
 C         3.417540        -0.275387        -1.308875
 O         2.021292        -0.465749        -1.240394
 O         3.438002        -1.688488         0.598653
 C         2.396211        -0.885782         1.124145
 H        -0.427430         0.874691        -0.672891
 H        -0.593519        -0.772472        -0.688349
 H        -0.516914         0.007643         0.902712
 H         2.491520         2.023893        -0.351135
 H         1.705532         1.712164         1.261873
 H         4.111710         0.721356         1.807884
 H         5.159353        -0.521785         0.067057
 H         3.729360         0.808423        -1.652699
 H         3.658180        -0.953705        -2.115715
 H         1.866468        -1.127643         2.096099
