19
Iteration:   271charge 0 multiplicity 1
 C        -0.040090        -0.064517        -0.024318
 C         1.508116        -0.043727        -0.040755
 C         2.169969         1.361926         0.488424
 C         3.352588         0.446815         1.070962
 C         4.033314        -0.463937         0.106152
 C         3.488926        -0.410761        -1.365577
 O         1.994025        -0.391726        -1.435894
 O         3.436160        -1.684878         0.621427
 C         2.402586        -0.783556         1.165523
 H        -0.363082         0.634436         0.681592
 H        -0.325845         0.341716        -0.994312
 H        -0.571343        -1.093860        -0.205391
 H         2.431849         2.136680        -0.267145
 H         1.672565         1.646264         1.452962
 H         4.131976         0.702514         1.784243
 H         5.130847        -0.514579         0.158176
 H         3.869942         0.461881        -1.825533
 H         3.789199        -1.424654        -1.774566
 H         1.829974        -1.091347         2.018061
