19
Iteration:  4765
 C         0.107794        -0.268449         0.058667
 C         1.507472         0.042317        -0.050018
 C         2.240406         1.375786         0.462120
 C         3.350315         0.415172         1.061484
 C         3.976086        -0.531803         0.066200
 C         3.553260        -0.398654        -1.349187
 O         2.079498        -0.205370        -1.329043
 O         3.205362        -1.711363         0.503757
 C         2.328352        -0.725654         1.128990
 H        -0.461835         0.008050        -0.810346
 H        -0.087591        -1.297242         0.042294
 H        -0.392539         0.073056         0.966239
 H         2.635329         2.102277        -0.302000
 H         1.921042         1.830780         1.438961
 H         3.943748         0.918117         1.851856
 H         5.049513        -0.762660         0.009185
 H         3.902434         0.472891        -1.920960
 H         3.783990        -1.393940        -1.910924
 H         1.841914        -1.098824         2.099507
