19
Iteration:  3754charge 0 multiplicity 1
 C         0.040224        -0.126651        -0.043908
 C         1.523467        -0.034153        -0.009433
 C         2.221631         1.293615         0.399936
 C         3.382669         0.400066         1.058975
 C         4.039863        -0.474736         0.045211
 C         3.432372        -0.387372        -1.403585
 O         2.039914        -0.346675        -1.323319
 O         3.313731        -1.663665         0.657832
 C         2.403770        -0.686783         1.167708
 H        -0.334716         0.589812         0.684242
 H        -0.372400         0.158673        -0.993536
 H        -0.455864        -1.185793         0.227921
 H         2.560239         1.985286        -0.442039
 H         1.631988         1.888691         1.192174
 H         3.900402         0.829726         1.879448
 H         5.074294        -0.714752         0.184130
 H         3.851234         0.379915        -1.972452
 H         3.658471        -1.407083        -1.812076
 H         1.765146        -1.083064         1.925990
