19
Iteration:  4521
 C         0.083131         0.052996        -0.000997
 C         1.546545        -0.076247         0.009051
 C         2.204833         1.230659         0.474633
 C         3.328829         0.443120         1.102864
 C         4.066696        -0.477008         0.037369
 C         3.485929        -0.281940        -1.330827
 O         1.970969        -0.443647        -1.317222
 O         3.393743        -1.682888         0.510199
 C         2.331549        -0.843440         1.167619
 H        -0.352332         0.255617        -1.005881
 H        -0.408335        -0.918944         0.272713
 H        -0.312805         0.856607         0.471331
 H         2.137515         1.702247        -0.558441
 H         1.397378         1.883188         0.974985
 H         4.031473         0.805854         1.910706
 H         5.184245        -0.441125         0.005304
 H         3.612245         0.699651        -1.770614
 H         3.917071        -1.009321        -2.153080
 H         1.854751        -1.312398         2.056263
