19
Iteration:   261charge 0 multiplicity 1
 C        -0.017718        -0.043653         0.037431
 C         1.520100         0.018507        -0.056428
 C         2.182723         1.306019         0.422010
 C         3.312273         0.400786         1.090741
 C         4.037689        -0.435529         0.060595
 C         3.501789        -0.396959        -1.338192
 O         2.053151        -0.418867        -1.381501
 O         3.416430        -1.699798         0.650202
 C         2.357440        -0.761905         1.042172
 H        -0.398316         0.353434         0.959963
 H        -0.421288         0.556197        -0.777008
 H        -0.374310        -1.109365         0.047865
 H         2.260169         2.092996        -0.348659
 H         1.545051         1.769688         1.288233
 H         3.824373         0.628451         1.974239
 H         5.140522        -0.493986         0.070552
 H         3.905969         0.436950        -1.870779
 H         3.875777        -1.231168        -1.863934
 H         1.864395        -1.072983         1.920530
