19
Iteration:  2727charge 0 multiplicity 1
 C        -0.000518        -0.007647        -0.080602
 C         1.555052        -0.026420        -0.053841
 C         2.291599         1.313949         0.440633
 C         3.317316         0.429280         1.087313
 C         4.085667        -0.469063         0.087412
 C         3.386504        -0.275648        -1.371778
 O         2.011304        -0.477389        -1.293779
 O         3.350029        -1.752060         0.595100
 C         2.402849        -0.771756         1.147195
 H        -0.378177         0.020997         1.003742
 H        -0.438939         0.772781        -0.706723
 H        -0.338120        -0.913697        -0.636842
 H         2.427276         1.996766        -0.365024
 H         1.617979         1.734336         1.229639
 H         3.794522         0.800716         2.000857
 H         5.119691        -0.575194        -0.004979
 H         3.782028         0.741965        -1.725677
 H         3.801796        -1.104653        -1.902274
 H         1.834553        -1.041586         2.014264
