19
Iteration:   933charge 0 multiplicity 1
 C         0.028354        -0.196854        -0.092785
 C         1.511094         0.019556         0.013234
 C         2.168617         1.372646         0.478599
 C         3.383006         0.543545         1.031718
 C         4.013372        -0.573986         0.027611
 C         3.551939        -0.491243        -1.368494
 O         1.997955        -0.307245        -1.328418
 O         3.353735        -1.700112         0.671622
 C         2.388708        -0.667310         1.111451
 H        -0.559148         0.337948         0.651228
 H        -0.326945         0.180820        -1.185991
 H        -0.246097        -1.291984        -0.036470
 H         2.289642         2.169564        -0.242426
 H         1.521864         1.772375         1.405149
 H         3.912155         0.738597         1.899317
 H         5.186513        -0.639176         0.157581
 H         3.971332         0.252216        -1.916542
 H         3.659416        -1.505197        -1.810236
 H         1.888041        -0.887619         1.975930
