19
Iteration:  2968
 C         0.040785        -0.209640        -0.016909
 C         1.549608         0.042143        -0.084012
 C         2.284638         1.398267         0.439507
 C         3.338511         0.443814         1.049440
 C         4.016541        -0.549099         0.101606
 C         3.518904        -0.371937        -1.284002
 O         2.031434        -0.335580        -1.304217
 O         3.269957        -1.716224         0.589379
 C         2.327451        -0.703386         1.039331
 H        -0.361306        -0.134662         1.085237
 H        -0.622731         0.259227        -0.745688
 H         0.008679        -1.359227        -0.137326
 H         2.492961         2.274145        -0.175059
 H         1.851153         1.846484         1.359739
 H         3.898175         0.803071         1.932840
 H         5.082457        -0.715998        -0.001651
 H         3.863818         0.518457        -1.963682
 H         3.662258        -1.164840        -2.007532
 H         1.846173        -1.015626         1.952097
