19
Iteration:  2253
 C         0.003982        -0.137715        -0.087195
 C         1.506108         0.011170         0.070872
 C         2.248154         1.317360         0.415385
 C         3.390512         0.464357         1.062931
 C         4.069722        -0.578085         0.046446
 C         3.453493        -0.362968        -1.417349
 O         2.047404        -0.345464        -1.332235
 O         3.301904        -1.667923         0.656741
 C         2.315581        -0.724293         1.158023
 H        -0.431203        -0.229054         0.836554
 H        -0.485782         0.784556        -0.500096
 H        -0.102710        -1.096639        -0.577188
 H         2.584531         1.804589        -0.474922
 H         1.807263         1.841433         1.277454
 H         4.156556         0.829207         1.877706
 H         5.139083        -0.650746         0.051634
 H         3.895149         0.517664        -2.003829
 H         3.756297        -1.315972        -1.877969
 H         1.701028        -1.064829         2.015635
