19
Iteration:   483charge 0 multiplicity 1
 C         0.130908        -0.166704         0.112885
 C         1.579095        -0.011114        -0.106082
 C         2.268037         1.342446         0.367247
 C         3.251637         0.467387         1.122995
 C         3.944392        -0.482919         0.139361
 C         3.501115        -0.316793        -1.316016
 O         2.078040        -0.360616        -1.403822
 O         3.311467        -1.714792         0.590605
 C         2.275880        -0.802453         1.045564
 H        -0.037433         0.243327         1.147729
 H        -0.502714         0.439441        -0.558504
 H        -0.132536        -1.222806         0.231349
 H         2.516626         2.059767        -0.399637
 H         1.647956         2.054831         1.055307
 H         3.847732         0.768718         2.015077
 H         5.087202        -0.529317         0.099111
 H         3.872921         0.540882        -2.071978
 H         3.933960        -1.179598        -1.865916
 H         1.583220        -1.247466         1.766316
