19
Iteration:  3517
 C        -0.046470         0.020690        -0.081280
 C         1.497838        -0.118263        -0.000657
 C         2.189006         1.299050         0.466739
 C         3.350595         0.454439         1.089727
 C         4.012075        -0.536741        -0.018660
 C         3.487217        -0.333594        -1.357743
 O         2.032472        -0.453244        -1.325288
 O         3.391343        -1.685294         0.698599
 C         2.454962        -0.713428         1.103899
 H        -0.532832        -0.084807         0.869121
 H        -0.148632         0.992492        -0.486416
 H        -0.574275        -0.868337        -0.704747
 H         2.421928         1.954870        -0.413779
 H         1.604882         1.722740         1.303578
 H         4.005254         0.760200         1.932560
 H         5.145359        -0.743023        -0.023778
 H         3.724844         0.660836        -1.852335
 H         3.879677        -0.977262        -2.180224
 H         1.815747        -0.991968         1.967427
