19
Iteration:  4405
 C         0.050538        -0.024573        -0.058636
 C         1.594304         0.023186        -0.059388
 C         2.250325         1.283464         0.539979
 C         3.304130         0.423377         1.116190
 C         4.011982        -0.460336         0.023623
 C         3.378462        -0.309757        -1.385696
 O         1.995533        -0.541313        -1.303461
 O         3.379783        -1.670568         0.550292
 C         2.389848        -0.770961         1.151228
 H        -0.339425         0.952026        -0.412710
 H        -0.189838        -0.834032        -0.704322
 H        -0.320266        -0.043576         0.998089
 H         2.410707         1.895559        -0.318479
 H         1.704462         1.823918         1.229281
 H         3.890530         0.701111         1.939840
 H         5.091995        -0.447553         0.103719
 H         3.638797         0.630358        -2.002842
 H         3.845646        -1.022294        -1.962123
 H         1.969649        -1.164771         2.055823
