19
Iteration:  3084
 C        -0.007357        -0.104111         0.005051
 C         1.529817        -0.052015        -0.062423
 C         2.178002         1.348927         0.311993
 C         3.289034         0.453680         1.110046
 C         4.063658        -0.559239         0.061096
 C         3.463804        -0.349785        -1.375908
 O         2.093106        -0.361628        -1.288998
 O         3.355826        -1.688441         0.645984
 C         2.376536        -0.774604         1.153670
 H        -0.373889        -0.130985         1.008162
 H        -0.488211         0.827936        -0.564034
 H        -0.501085        -0.842297        -0.545278
 H         2.661794         2.074976        -0.365996
 H         1.682296         1.973573         1.079749
 H         4.079271         0.726656         1.917632
 H         5.168057        -0.774877         0.143345
 H         3.781494         0.663041        -1.748251
 H         3.857739        -1.007060        -2.246855
 H         1.692186        -1.187085         1.974186
