19
Iteration:   269
 C        -0.039827        -0.061603         0.002372
 C         1.511867        -0.025741        -0.043514
 C         2.161214         1.362766         0.479535
 C         3.343339         0.418615         1.068108
 C         4.030218        -0.439090         0.115505
 C         3.488893        -0.404750        -1.359574
 O         2.005829        -0.401671        -1.434156
 O         3.435952        -1.691056         0.625837
 C         2.395630        -0.774179         1.129598
 H        -0.356128         0.631801         0.765049
 H        -0.360834         0.363461        -0.969569
 H        -0.554490        -1.112885        -0.231499
 H         2.395874         2.123072        -0.345709
 H         1.716295         1.590374         1.354328
 H         4.190398         0.668301         1.865096
 H         5.111947        -0.534079         0.149505
 H         3.911871         0.519013        -1.815553
 H         3.832606        -1.511349        -1.805068
 H         1.811364        -1.085191         2.063779
