19
Iteration:  4528
 C         0.043581         0.086373         0.020562
 C         1.498113        -0.113842         0.006136
 C         2.158094         1.225524         0.390763
 C         3.268873         0.358319         1.089236
 C         4.062816        -0.472919         0.005581
 C         3.461314        -0.261972        -1.366894
 O         2.032173        -0.417533        -1.308205
 O         3.433440        -1.663573         0.559882
 C         2.377838        -0.861012         1.173673
 H        -0.110398         0.155145        -1.041803
 H        -0.434546        -0.798190         0.508214
 H        -0.331242         0.991028         0.673116
 H         2.458028         1.804200        -0.517624
 H         1.583239         1.803929         1.117717
 H         3.889121         0.806558         1.929791
 H         5.155734        -0.597624         0.006235
 H         3.784436         0.813083        -1.662983
 H         3.826103        -0.952120        -2.084709
 H         1.746869        -1.181117         2.019615
