19
Iteration:  2728charge 0 multiplicity 1
 C         0.012547         0.001620        -0.081941
 C         1.550294        -0.025021        -0.058034
 C         2.292690         1.294392         0.440084
 C         3.312697         0.429488         1.091762
 C         4.086056        -0.461214         0.088725
 C         3.376924        -0.270522        -1.375629
 O         2.008409        -0.477242        -1.293707
 O         3.353728        -1.744273         0.604269
 C         2.405684        -0.779596         1.141595
 H        -0.393854         0.025370         1.009799
 H        -0.408264         0.720295        -0.689998
 H        -0.355104        -0.892134        -0.670491
 H         2.400582         2.008732        -0.368238
 H         1.635185         1.747425         1.237217
 H         3.806063         0.785483         1.996522
 H         5.123384        -0.625978         0.020366
 H         3.785347         0.735225        -1.742074
 H         3.795622        -1.127297        -1.930961
 H         1.839681        -1.028365         2.014575
