19
Iteration:   351charge 0 multiplicity 1
 C         0.134366        -0.178348         0.083986
 C         1.557949        -0.017926        -0.023268
 C         2.261402         1.348505         0.346222
 C         3.235374         0.469323         1.048727
 C         3.985455        -0.524935         0.064358
 C         3.555281        -0.278922        -1.367103
 O         2.061715        -0.427111        -1.355013
 O         3.288470        -1.688364         0.640151
 C         2.267287        -0.772653         1.072770
 H        -0.102373        -0.108049         1.163923
 H        -0.368934         0.642295        -0.406211
 H        -0.216506        -1.115293        -0.147366
 H         2.454768         1.997366        -0.470156
 H         1.799810         2.053282         1.118882
 H         3.759645         0.793206         1.890725
 H         5.101815        -0.628302         0.151486
 H         3.836454         0.689842        -1.715039
 H         3.924400        -0.945178        -2.014892
 H         1.703277        -0.996467         1.957634
