19
Iteration:  2795
 C         0.009383        -0.160881        -0.035599
 C         1.531188        -0.015775         0.031881
 C         2.234621         1.359845         0.469394
 C         3.338957         0.444644         1.096872
 C         3.998012        -0.534768         0.042706
 C         3.491062        -0.350199        -1.377228
 O         2.116201        -0.388131        -1.327512
 O         3.284625        -1.657859         0.569749
 C         2.323230        -0.743950         1.094541
 H        -0.374896         0.245327         0.995884
 H        -0.179722         0.503761        -0.824435
 H        -0.267452        -1.243727        -0.396181
 H         2.597131         2.078298        -0.320361
 H         1.872159         1.880096         1.384580
 H         3.917686         0.804561         1.957049
 H         5.048654        -0.754299         0.123885
 H         3.727867         0.667261        -1.880693
 H         3.755700        -1.306771        -2.004672
 H         1.833400        -1.045103         2.020521
