19
Iteration:  1113
 C         0.060640        -0.124300        -0.037448
 C         1.586515        -0.031235        -0.020958
 C         2.260165         1.291460         0.401924
 C         3.338107         0.466707         1.130670
 C         4.022452        -0.584347         0.056722
 C         3.479129        -0.205904        -1.417369
 O         2.136446        -0.531126        -1.327144
 O         3.217638        -1.644205         0.612764
 C         2.281515        -0.705780         1.167010
 H        -0.423047         0.180579         1.007758
 H        -0.372178         0.336158        -0.899584
 H        -0.315645        -1.153346         0.043043
 H         2.663885         2.053807        -0.419951
 H         1.615153         1.950432         0.960712
 H         4.021082         0.995347         1.915885
 H         5.068162        -0.701211         0.131593
 H         3.687420         0.786009        -1.733416
 H         3.863791        -0.832662        -2.235704
 H         1.647574        -1.015813         2.097298
