19
Iteration:  4417charge 0 multiplicity 1
 C         0.015765        -0.080572        -0.018816
 C         1.486091         0.015424        -0.089038
 C         2.257536         1.398146         0.485665
 C         3.354929         0.423388         1.105974
 C         4.028288        -0.464001         0.071541
 C         3.479838        -0.405698        -1.333304
 O         1.982239        -0.470630        -1.309900
 O         3.390248        -1.678228         0.538740
 C         2.393622        -0.757435         1.059384
 H        -0.523154         0.824155        -0.226950
 H        -0.485810        -0.811075        -0.569615
 H        -0.177194        -0.475857         1.038299
 H         2.590724         2.281997        -0.067219
 H         1.658331         1.680169         1.311802
 H         3.945525         0.603224         1.961307
 H         5.102431        -0.545088         0.070477
 H         3.691728         0.638104        -1.765976
 H         3.733763        -1.237158        -1.870233
 H         1.776111        -1.049305         1.876834
