19
Iteration:    45charge 0 multiplicity 1
 C        -0.036755        -0.150022        -0.073118
 C         1.474967        -0.003797        -0.081586
 C         2.194261         1.278576         0.478107
 C         3.332135         0.450632         1.084181
 C         3.975361        -0.459200        -0.031306
 C         3.448731        -0.490007        -1.426382
 O         2.065511        -0.254755        -1.417275
 O         3.440218        -1.642405         0.740345
 C         2.445508        -0.772957         1.246222
 H        -0.387348        -0.012759         0.976522
 H        -0.337201         0.706993        -0.708241
 H        -0.366201        -1.002043        -0.570323
 H         2.427965         2.165754         0.002966
 H         1.697754         1.521352         1.384843
 H         3.949893         0.788262         1.908956
 H         5.075825        -0.447735        -0.024898
 H         3.969059         0.097798        -2.124035
 H         3.540151        -1.542623        -1.612653
 H         1.794655        -1.071965         2.046144
