19
Iteration:  4490charge 0 multiplicity 1
 C         0.003890        -0.181732        -0.076200
 C         1.539903         0.072269        -0.003736
 C         2.307480         1.410158         0.571221
 C         3.343002         0.385781         1.034970
 C         4.068522        -0.542881        -0.070996
 C         3.470361        -0.329919        -1.400173
 O         2.032278        -0.432113        -1.234721
 O         3.325155        -1.665213         0.588713
 C         2.293932        -0.715329         1.149071
 H        -0.525788         0.381236        -0.944201
 H        -0.174776        -1.247464        -0.342906
 H        -0.575578         0.054033         0.813573
 H         2.567432         2.158529        -0.216035
 H         1.638963         1.805785         1.394979
 H         3.992780         0.472518         1.888892
 H         5.181247        -0.549764        -0.097964
 H         3.673789         0.634766        -1.792960
 H         3.736890        -1.171490        -2.135801
 H         1.905162        -1.078705         2.125073
