19
Iteration:  4728charge 0 multiplicity 1
 C         0.023794        -0.220688        -0.037266
 C         1.521784         0.054017        -0.019761
 C         2.290607         1.329688         0.479851
 C         3.354429         0.430009         1.072683
 C         3.991815        -0.556837         0.029896
 C         3.451638        -0.303081        -1.358879
 O         2.002825        -0.285942        -1.340196
 O         3.336635        -1.750247         0.589120
 C         2.349263        -0.762943         1.168796
 H        -0.277430         0.226348        -1.083649
 H        -0.021371        -1.352536        -0.087333
 H        -0.441671         0.438952         0.680572
 H         2.438269         2.155415        -0.217661
 H         1.855382         1.882524         1.342723
 H         4.140844         0.744689         1.734306
 H         5.072834        -0.730657         0.077662
 H         3.933916         0.591561        -1.677946
 H         3.687529        -1.065950        -2.068737
 H         1.838527        -0.873930         2.097550
