19
Iteration:   503
 C        -0.035072        -0.107337         0.045833
 C         1.512712         0.025960        -0.085332
 C         2.223065         1.291791         0.440712
 C         3.252560         0.422893         1.152982
 C         4.119649        -0.497530         0.064987
 C         3.568263        -0.406034        -1.412619
 O         2.040378        -0.385773        -1.365652
 O         3.340708        -1.637844         0.611437
 C         2.348995        -0.759975         1.117294
 H        -0.398621         0.064468         1.128908
 H        -0.542828         0.650265        -0.605239
 H        -0.295362        -1.122764        -0.292759
 H         2.621125         2.010544        -0.262361
 H         1.544003         1.918184         1.112370
 H         3.753131         0.700054         2.045306
 H         5.237271        -0.563009         0.083992
 H         3.919160         0.515658        -1.892831
 H         3.856016        -1.201669        -2.234511
 H         1.790680        -1.150111         1.901011
