19
Iteration:  2272charge 0 multiplicity 1
 C         0.007243        -0.072690        -0.117317
 C         1.546994         0.071791        -0.030899
 C         2.181994         1.401374         0.507745
 C         3.296260         0.457658         0.993661
 C         4.012029        -0.548916        -0.014598
 C         3.494208        -0.479303        -1.361574
 O         2.039163        -0.395706        -1.201399
 O         3.329623        -1.702397         0.592781
 C         2.434647        -0.751399         1.147987
 H        -0.488129         0.077654         0.912970
 H        -0.344027         0.690458        -0.814034
 H        -0.177648        -1.143216        -0.417922
 H         2.408314         2.345920        -0.220013
 H         1.563148         1.651984         1.432051
 H         4.002862         0.767381         1.742248
 H         5.127789        -0.667405         0.234390
 H         3.889542         0.421977        -1.875289
 H         3.922809        -1.292690        -2.004819
 H         1.975308        -1.143982         2.052759
