19
Iteration:  2918charge 0 multiplicity 1
 C        -0.021176        -0.004871        -0.116036
 C         1.523644         0.020844        -0.014821
 C         2.184283         1.264270         0.393280
 C         3.342279         0.431655         0.989814
 C         4.059803        -0.513829         0.088026
 C         3.480504        -0.315701        -1.278253
 O         2.006449        -0.464577        -1.258744
 O         3.420860        -1.695446         0.616965
 C         2.378669        -0.806148         1.157804
 H        -0.295468         0.032281         0.896371
 H        -0.370418         0.934541        -0.617332
 H        -0.542980        -0.754237        -0.720612
 H         2.617191         2.008008        -0.333949
 H         1.644864         1.821254         1.150480
 H         3.913921         0.786983         1.847059
 H         5.185315        -0.593921         0.059203
 H         3.515441         0.694981        -1.635825
 H         3.746377        -0.890642        -2.189984
 H         1.839097        -1.320919         1.983553
