19
Iteration:  2847
 C        -0.069104        -0.212480        -0.025659
 C         1.508363        -0.017624        -0.055635
 C         2.288291         1.398399         0.463705
 C         3.355261         0.410679         1.071087
 C         4.062838        -0.536747         0.007608
 C         3.582952        -0.309793        -1.345914
 O         2.031567        -0.322761        -1.300820
 O         3.254910        -1.743791         0.636857
 C         2.347840        -0.706278         1.097746
 H        -0.236772         0.181735         1.031259
 H        -0.495984         0.122721        -0.981709
 H        -0.294065        -1.292420        -0.220142
 H         2.551349         2.050600        -0.364408
 H         1.769467         2.104076         1.168257
 H         4.071091         0.593182         1.895317
 H         5.093449        -0.680620         0.174210
 H         3.900128         0.607412        -1.742550
 H         3.809587        -1.039335        -2.120183
 H         1.790102        -0.816166         2.032986
