19
Iteration:  1328charge 0 multiplicity 1
 C        -0.048822        -0.107984        -0.052978
 C         1.538138         0.085320        -0.010807
 C         2.230092         1.437210         0.401399
 C         3.327479         0.448950         1.091951
 C         4.049161        -0.541165        -0.004451
 C         3.522035        -0.414237        -1.392548
 O         2.046989        -0.476971        -1.324663
 O         3.349457        -1.703667         0.693503
 C         2.358461        -0.709240         1.144809
 H        -0.563806        -0.278394         1.008292
 H        -0.564344         0.822866        -0.691725
 H        -0.240033        -1.093847        -0.644360
 H         2.566094         2.187652        -0.338410
 H         1.526842         1.830603         1.169560
 H         3.909043         0.594568         2.086460
 H         5.209760        -0.789537        -0.108637
 H         3.723355         0.542004        -1.706604
 H         3.981510        -1.200983        -2.045932
 H         1.854725        -1.030697         2.047449
