19
Iteration:   102charge 0 multiplicity 1
 C        -0.017715        -0.196850        -0.015010
 C         1.479791        -0.048802        -0.026804
 C         2.255724         1.263751         0.404448
 C         3.392263         0.492646         1.106551
 C         4.051471        -0.518275         0.059538
 C         3.518698        -0.199683        -1.367082
 O         2.078390        -0.526809        -1.329819
 O         3.197553        -1.661976         0.561154
 C         2.431293        -0.670484         1.186435
 H        -0.426411         0.287931         1.005445
 H        -0.528421         0.468097        -0.801650
 H        -0.346502        -1.187999        -0.037012
 H         2.680793         1.811330        -0.527773
 H         1.840637         2.023423         0.945258
 H         3.934871         0.793600         1.942144
 H         5.049826        -0.699282         0.271081
 H         3.730685         0.824908        -1.587210
 H         3.936399        -0.674353        -2.323799
 H         1.835614        -1.021914         2.038195
