19
Iteration:   736charge 0 multiplicity 1
 C         0.075019        -0.124195         0.126600
 C         1.548144         0.022853        -0.105960
 C         2.269602         1.310299         0.327290
 C         3.253557         0.485264         1.092654
 C         3.992904        -0.493377         0.133111
 C         3.532219        -0.282484        -1.309645
 O         2.061682        -0.450547        -1.408782
 O         3.300759        -1.682123         0.644244
 C         2.317288        -0.767106         1.072460
 H        -0.231994         0.212711         1.123228
 H        -0.596700         0.507843        -0.546482
 H        -0.107821        -1.212684        -0.135864
 H         2.585914         1.910474        -0.476793
 H         1.598137         1.857769         0.985551
 H         3.751191         0.863213         2.003650
 H         5.078206        -0.710411         0.085189
 H         4.034559         0.463051        -2.006367
 H         3.880503        -1.238235        -1.929627
 H         1.805694        -1.263724         1.894499
