19
Iteration:  3716
 C         0.088270        -0.258699        -0.108718
 C         1.555294         0.099050        -0.000504
 C         2.222038         1.406390         0.418856
 C         3.378771         0.422158         0.968035
 C         4.028928        -0.590946         0.006993
 C         3.473772        -0.384867        -1.352949
 O         2.033993        -0.345462        -1.207392
 O         3.228179        -1.682031         0.699648
 C         2.343296        -0.691930         1.101296
 H        -0.166037        -0.461013         0.977137
 H        -0.654137         0.516898        -0.550822
 H         0.042861        -1.135190        -0.638104
 H         2.392548         2.172360        -0.358930
 H         1.822432         1.951628         1.329965
 H         4.278367         0.702717         1.619613
 H         5.151719        -0.739904         0.025143
 H         3.835366         0.477327        -2.015685
 H         3.640816        -1.303770        -1.972541
 H         1.834245        -0.671955         2.121602
