19
Iteration:  2786charge 0 multiplicity 1
 C        -0.006374        -0.054577        -0.067923
 C         1.507932        -0.023480        -0.020505
 C         2.260028         1.289451         0.473600
 C         3.341591         0.448765         1.088474
 C         4.098094        -0.507021         0.034493
 C         3.524340        -0.389094        -1.300335
 O         2.016647        -0.398239        -1.298007
 O         3.353639        -1.631615         0.540589
 C         2.312354        -0.761536         1.132053
 H        -0.626629         0.084116         0.820878
 H        -0.478352         0.631089        -0.737893
 H        -0.282370        -1.137460        -0.268634
 H         2.261279         2.062673        -0.368732
 H         1.659974         1.705084         1.312750
 H         4.000228         0.768541         1.907005
 H         5.218076        -0.725691         0.110406
 H         3.965659         0.544969        -1.837742
 H         3.720527        -1.263019        -2.048371
 H         1.648081        -1.139820         1.954410
