19
Iteration:  2609
 C         0.071397         0.034738        -0.078894
 C         1.587502        -0.022034        -0.015066
 C         2.178871         1.295845         0.432007
 C         3.334103         0.428696         1.102558
 C         4.027491        -0.531596         0.017583
 C         3.496757        -0.306363        -1.419000
 O         2.037748        -0.519410        -1.262102
 O         3.308845        -1.656612         0.593900
 C         2.382310        -0.783905         1.195902
 H        -0.502719         0.311027         0.926812
 H        -0.222821         0.771594        -0.757094
 H        -0.514665        -0.830115        -0.568664
 H         2.397402         2.013507        -0.388906
 H         1.434470         1.660871         1.196397
 H         3.945577         0.815203         1.936503
 H         5.124138        -0.532572         0.216432
 H         3.648429         0.644651        -1.844396
 H         3.816050        -1.196227        -2.098473
 H         1.854536        -1.152283         2.057721
