19
Iteration:  4321
 C         0.076357        -0.221646         0.045032
 C         1.636357         0.085046        -0.048426
 C         2.228518         1.345593         0.448373
 C         3.304139         0.402570         1.161171
 C         4.001175        -0.472575         0.009295
 C         3.488814        -0.394639        -1.411064
 O         2.019372        -0.212451        -1.368317
 O         3.246559        -1.732978         0.560376
 C         2.403844        -0.787242         1.154869
 H        -0.384268        -0.299781        -0.899106
 H         0.015306        -1.239160         0.363431
 H        -0.595894         0.357759         0.798622
 H         2.371764         2.082700        -0.422370
 H         1.626716         1.888571         1.252925
 H         3.903817         0.670529         2.021247
 H         5.077102        -0.514668         0.008001
 H         3.968854         0.393179        -1.923822
 H         3.739080        -1.454407        -1.764627
 H         1.814113        -1.153368         1.980666
