19
Iteration:  3986
 C        -0.003536        -0.132372        -0.004372
 C         1.521151         0.016214         0.011295
 C         2.217788         1.400596         0.452060
 C         3.324874         0.479864         1.103888
 C         4.042363        -0.496141         0.036356
 C         3.468900        -0.461206        -1.370080
 O         2.044973        -0.317825        -1.283688
 O         3.377766        -1.709455         0.552557
 C         2.341967        -0.786206         1.048131
 H        -0.558002         0.718012        -0.326189
 H        -0.158701        -1.005824        -0.608918
 H        -0.333996        -0.414749         1.008559
 H         2.771600         2.047007        -0.323785
 H         1.530336         2.012697         1.112359
 H         3.960223         0.801688         1.946993
 H         5.087160        -0.638863         0.306422
 H         3.885033         0.479171        -1.966145
 H         3.772351        -1.411696        -1.809585
 H         1.780946        -1.315182         1.832828
