19
Iteration:   610
 C        -0.013806        -0.168883         0.092215
 C         1.527701        -0.030731        -0.070809
 C         2.302864         1.310894         0.347084
 C         3.251146         0.464613         1.097709
 C         4.039925        -0.425395         0.104879
 C         3.636101        -0.343736        -1.397170
 O         2.052438        -0.313483        -1.423845
 O         3.276350        -1.726176         0.645172
 C         2.297483        -0.824946         1.130554
 H        -0.090996         0.309870         1.104269
 H        -0.752370         0.308398        -0.511863
 H        -0.255684        -1.195070         0.248984
 H         2.706643         1.929255        -0.428974
 H         1.696892         1.746994         1.052461
 H         3.797880         0.913630         1.853044
 H         5.097853        -0.493365         0.104514
 H         4.023440         0.731938        -1.729249
 H         3.814454        -1.168751        -2.020516
 H         1.666004        -1.150214         1.930570
