19
Iteration:  1826charge 0 multiplicity 1
 C        -0.030646        -0.222001        -0.042305
 C         1.519932        -0.008430        -0.075460
 C         2.267092         1.379726         0.390849
 C         3.406989         0.523344         1.078167
 C         4.085963        -0.589372         0.074024
 C         3.407402        -0.378176        -1.319682
 O         2.087531        -0.361013        -1.323140
 O         3.272208        -1.723552         0.633982
 C         2.343251        -0.658287         1.157286
 H        -0.555899         0.302151         0.697166
 H        -0.426082         0.228696        -0.970440
 H        -0.290121        -1.271748        -0.124451
 H         2.593562         2.010010        -0.501729
 H         1.881314         2.002409         1.245248
 H         3.890331         0.962931         1.979406
 H         5.130019        -0.732913         0.145317
 H         3.888460         0.588317        -1.790083
 H         3.800944        -1.112836        -1.995853
 H         1.793990        -1.105941         1.993281
