19
Iteration:  3123
 C         0.024648        -0.208914        -0.106231
 C         1.608994        -0.011417        -0.055859
 C         2.228931         1.387354         0.498122
 C         3.405543         0.521181         1.090050
 C         4.044982        -0.547640         0.026396
 C         3.425718        -0.499343        -1.376192
 O         2.042104        -0.302868        -1.307832
 O         3.270587        -1.673053         0.633094
 C         2.371536        -0.671876         1.156487
 H        -0.204847        -0.486540         0.994937
 H        -0.455894         0.696687        -0.375401
 H        -0.154581        -1.093169        -0.877583
 H         2.299991         2.128003        -0.318948
 H         1.419941         1.679687         1.185741
 H         3.886186         0.844186         1.979246
 H         5.136253        -0.668325        -0.009189
 H         3.831263         0.435582        -1.770824
 H         3.665092        -1.372725        -1.889141
 H         1.714757        -1.093861         1.888866
