19
Iteration:  1407
 C         0.058286        -0.039376        -0.106178
 C         1.554374        -0.008107        -0.037575
 C         2.202744         1.324344         0.483276
 C         3.300770         0.469620         1.090858
 C         4.029541        -0.502563         0.080607
 C         3.389575        -0.479661        -1.324038
 O         1.986327        -0.387687        -1.402996
 O         3.422846        -1.667751         0.693314
 C         2.429873        -0.722012         1.074251
 H        -0.427960         0.308904         0.932593
 H        -0.398047         0.703669        -0.844540
 H        -0.276592        -1.072392        -0.447515
 H         2.424773         2.201408        -0.194890
 H         1.578637         1.647477         1.266752
 H         3.939876         0.625511         2.002470
 H         5.137116        -0.646886         0.104764
 H         3.767619         0.184302        -2.025732
 H         3.740768        -1.415785        -1.678963
 H         1.850570        -1.073139         1.908682
