19
Iteration:   477
 C         0.137198        -0.169214         0.144816
 C         1.591260         0.000973        -0.125688
 C         2.256057         1.358408         0.349419
 C         3.237844         0.450337         1.100214
 C         3.957161        -0.442309         0.102167
 C         3.547692        -0.345037        -1.287850
 O         2.034960        -0.351424        -1.376069
 O         3.291147        -1.751550         0.579792
 C         2.301673        -0.780696         1.068135
 H        -0.115976         0.339869         1.051620
 H        -0.438082         0.302484        -0.663177
 H        -0.122651        -1.248667         0.043294
 H         2.701083         1.995162        -0.494924
 H         1.647533         1.815165         1.051645
 H         3.804028         0.734589         2.027152
 H         5.020245        -0.357518         0.013179
 H         3.907291         0.607847        -1.585281
 H         3.931250        -1.132148        -1.968489
 H         1.561239        -1.199259         1.850556
