19
Iteration:  3293
 C         0.015146        -0.224435        -0.019308
 C         1.529032         0.059754         0.004815
 C         2.217845         1.346255         0.401908
 C         3.382262         0.442936         1.067457
 C         4.063187        -0.521320         0.051907
 C         3.530883        -0.390181        -1.365833
 O         2.056069        -0.377654        -1.254898
 O         3.294495        -1.671782         0.603296
 C         2.311596        -0.664185         1.069756
 H        -0.336802        -0.489938         1.037773
 H        -0.627753         0.711209        -0.343757
 H        -0.181225        -0.881554        -0.806317
 H         2.439373         1.917236        -0.469520
 H         1.773946         2.001042         1.129406
 H         3.792163         0.619491         2.053936
 H         5.104659        -0.725904         0.017152
 H         3.771573         0.450856        -1.964522
 H         3.798945        -1.339086        -1.895045
 H         1.721855        -0.973957         1.944357
