19
Iteration:  2748charge 0 multiplicity 1
 C         0.029052         0.052645        -0.116261
 C         1.570507        -0.090512         0.023190
 C         2.206853         1.294710         0.475380
 C         3.314076         0.400828         1.094615
 C         3.997096        -0.526591        -0.006035
 C         3.462464        -0.338315        -1.408740
 O         1.969112        -0.445034        -1.325337
 O         3.468320        -1.640577         0.677075
 C         2.324980        -0.818353         1.175890
 H        -0.356996         0.172533         0.936607
 H        -0.093155         1.060179        -0.695775
 H        -0.344051        -0.800235        -0.697148
 H         2.564790         1.886012        -0.325888
 H         1.456825         1.742692         1.151396
 H         3.983189         0.756069         1.887647
 H         5.028536        -0.362299        -0.101519
 H         3.719599         0.756565        -1.642354
 H         3.885106        -1.049757        -2.062535
 H         1.760900        -1.411463         1.874259
