19
Iteration:  4934charge 0 multiplicity 1
 C         0.034461        -0.230798        -0.043347
 C         1.528120         0.024496         0.007583
 C         2.315688         1.402219         0.560904
 C         3.418931         0.475760         1.107098
 C         3.987169        -0.594921         0.035548
 C         3.464664        -0.331818        -1.360720
 O         2.027254        -0.393307        -1.305028
 O         3.261397        -1.683161         0.547751
 C         2.317381        -0.679559         1.025756
 H        -0.387236         0.005128        -0.987024
 H        -0.162330        -1.352161        -0.130778
 H        -0.512426         0.179253         0.776338
 H         2.516289         2.180341        -0.197910
 H         1.852777         1.830331         1.461147
 H         4.151792         0.843669         1.859741
 H         5.071251        -0.752872        -0.043522
 H         3.835190         0.594817        -1.852650
 H         3.894169        -1.107895        -1.957990
 H         1.783864        -0.899411         1.998335
