19
Iteration:  4945
 C         0.012066        -0.171470        -0.068676
 C         1.521450         0.079807        -0.039474
 C         2.279918         1.312711         0.539153
 C         3.422653         0.428782         1.018477
 C         4.066852        -0.491043         0.014765
 C         3.440091        -0.314279        -1.391016
 O         2.041487        -0.416314        -1.293368
 O         3.273738        -1.675881         0.629271
 C         2.347038        -0.747394         1.114521
 H        -0.316665         0.404368        -0.894170
 H        -0.151172        -1.296260        -0.078108
 H        -0.523525         0.264113         0.743200
 H         2.486894         2.181684        -0.112344
 H         1.747191         1.709612         1.414882
 H         3.875616         0.579479         2.001460
 H         5.131871        -0.755712         0.006713
 H         3.634450         0.647187        -1.872055
 H         3.720790        -1.155669        -2.005561
 H         1.734190        -1.186109         1.971277
