19
Iteration:  4163charge 0 multiplicity 1
 C         0.017281        -0.319305        -0.043719
 C         1.494753         0.122139         0.056337
 C         2.265670         1.402109         0.472305
 C         3.415587         0.515156         1.027698
 C         4.002478        -0.573321         0.056237
 C         3.506855        -0.353547        -1.339598
 O         2.033427        -0.359022        -1.256755
 O         3.233681        -1.794848         0.468488
 C         2.368126        -0.621567         1.114255
 H        -0.357397         0.001044        -1.088535
 H        -0.187810        -1.456100         0.007323
 H        -0.517102         0.269564         0.632248
 H         2.643781         2.219302        -0.308281
 H         1.903736         1.891885         1.431599
 H         3.947343         0.760011         2.016919
 H         5.142556        -0.734521         0.097964
 H         3.831530         0.583197        -1.723104
 H         3.812959        -1.142832        -1.953990
 H         2.114019        -0.908224         2.178031
