19
Iteration:  4110
 C        -0.008477        -0.032131         0.007616
 C         1.555723        -0.038225        -0.098282
 C         2.188821         1.298842         0.472235
 C         3.356909         0.469065         1.041204
 C         4.129299        -0.514858         0.042156
 C         3.448416        -0.280218        -1.298472
 O         1.958943        -0.398569        -1.394537
 O         3.402408        -1.730611         0.698362
 C         2.353027        -0.813125         1.065301
 H        -0.459998         0.251697        -0.981328
 H        -0.341640        -1.027469         0.297054
 H        -0.380634         0.595456         0.734718
 H         2.542086         2.198161        -0.163439
 H         1.631208         1.750764         1.326691
 H         3.959523         0.629557         1.990124
 H         5.238897        -0.618876        -0.039756
 H         3.786837         0.721423        -1.787645
 H         3.736390        -1.063760        -1.973858
 H         1.685406        -1.364656         1.757534
