19
Iteration:  2429charge 0 multiplicity 1
 C         0.127566        -0.058917        -0.063996
 C         1.566303        -0.033793        -0.011161
 C         2.213489         1.319522         0.395735
 C         3.292027         0.511016         1.132937
 C         4.007807        -0.568206         0.064475
 C         3.439956        -0.385430        -1.382110
 O         1.994487        -0.423508        -1.344413
 O         3.352013        -1.690346         0.634406
 C         2.389240        -0.740991         1.144032
 H        -0.219536        -0.044081         0.927213
 H        -0.355476         0.820980        -0.611384
 H        -0.372895        -0.868963        -0.532082
 H         2.418531         2.137885        -0.350505
 H         1.646880         1.997298         1.107331
 H         3.876146         0.900017         2.062718
 H         5.054834        -0.666617         0.109993
 H         3.924965         0.480780        -1.804099
 H         3.756952        -1.179222        -2.028245
 H         1.752470        -1.199166         1.924893
