19
Iteration:  3099
 C        -0.055761        -0.132761        -0.023099
 C         1.514887         0.070576        -0.022563
 C         2.259046         1.339501         0.461417
 C         3.302105         0.436380         0.972401
 C         4.003677        -0.524631         0.012922
 C         3.563855        -0.350439        -1.375041
 O         2.075525        -0.369889        -1.348674
 O         3.344465        -1.733523         0.717250
 C         2.324701        -0.750251         1.112640
 H        -0.184818        -0.388309         1.100503
 H        -0.601056         0.717383        -0.258461
 H        -0.222359        -1.012848        -0.716628
 H         2.362802         1.944967        -0.460605
 H         1.667907         1.881907         1.274801
 H         3.884223         0.780092         1.790144
 H         5.152177        -0.466835         0.084142
 H         4.049980         0.490169        -1.759244
 H         3.820169        -1.258349        -1.868833
 H         1.863419        -1.013306         2.055598
