19
Iteration:  4305charge 0 multiplicity 1
 C        -0.006309        -0.283754         0.019355
 C         1.441131         0.041312        -0.005591
 C         2.281282         1.377895         0.434587
 C         3.364963         0.476004         1.032673
 C         4.057514        -0.590928         0.089590
 C         3.467747        -0.367815        -1.319212
 O         2.043771        -0.192784        -1.319485
 O         3.334805        -1.734687         0.546133
 C         2.347507        -0.752605         1.084373
 H        -0.515906         0.019637        -0.961917
 H        -0.122688        -1.412375         0.083025
 H        -0.375398         0.329830         0.812182
 H         2.687381         2.050220        -0.309821
 H         1.766677         1.934079         1.204179
 H         4.083574         0.841595         1.809733
 H         5.143124        -0.863173         0.222194
 H         3.890885         0.606094        -1.811956
 H         3.599125        -1.256353        -1.886256
 H         1.800640        -1.124032         1.984284
