19
Iteration:   857
 C         0.098803        -0.032318         0.139596
 C         1.601185         0.003764        -0.116393
 C         2.205164         1.313262         0.293487
 C         3.218754         0.457651         1.107217
 C         3.990676        -0.513265         0.108143
 C         3.523071        -0.296293        -1.355837
 O         2.082504        -0.542297        -1.363988
 O         3.330681        -1.651855         0.656365
 C         2.311411        -0.785829         1.108967
 H        -0.246212        -0.112676         1.118105
 H        -0.287140         0.784599        -0.561718
 H        -0.294375        -0.964717        -0.289092
 H         2.512642         1.846092        -0.532449
 H         1.509433         1.965548         0.746317
 H         3.917039         0.771236         1.798875
 H         5.045911        -0.449259         0.437802
 H         3.629639         0.745265        -1.765391
 H         3.960089        -1.042805        -2.106839
 H         1.717853        -1.126311         1.859575
