19
Iteration:   782
 C         0.030521        -0.215426        -0.243102
 C         1.516104         0.046929         0.036529
 C         2.219307         1.271198         0.478039
 C         3.477394         0.467743         1.024764
 C         4.040466        -0.516669         0.015632
 C         3.421610        -0.406532        -1.372108
 O         2.007041        -0.379303        -1.318029
 O         3.248386        -1.642851         0.687264
 C         2.422324        -0.660817         1.299473
 H        -0.576367         0.194754         0.533218
 H        -0.350884         0.178031        -1.189516
 H         0.007308        -1.295092        -0.304749
 H         2.367554         2.078955        -0.274684
 H         1.749947         1.654691         1.318912
 H         4.150197         0.928060         1.657898
 H         5.038091        -0.635535         0.054289
 H         3.786730         0.590825        -1.772801
 H         3.823829        -1.075202        -2.217314
 H         1.843695        -1.019616         2.227537
