19
Iteration:  1500charge 0 multiplicity 1
 C         0.006814        -0.202182         0.029710
 C         1.553537         0.018344        -0.021314
 C         2.285614         1.367926         0.351861
 C         3.348715         0.424168         1.089472
 C         4.064428        -0.478988         0.070299
 C         3.551199        -0.406072        -1.422077
 O         2.057305        -0.367109        -1.323429
 O         3.207223        -1.667322         0.640587
 C         2.330881        -0.716765         1.133100
 H        -0.350398         0.031233         1.015419
 H        -0.575241         0.442011        -0.675644
 H        -0.170339        -1.227073        -0.256874
 H         2.615417         2.058562        -0.406651
 H         1.571021         1.905463         1.096052
 H         3.896151         0.814091         1.966747
 H         5.154913        -0.616116         0.216906
 H         3.880772         0.441572        -1.860083
 H         3.940914        -1.279307        -2.058984
 H         1.572009        -1.014070         1.919963
