19
Iteration:  1318
 C        -0.006706        -0.086900        -0.112358
 C         1.487120         0.018605        -0.065994
 C         2.228261         1.360884         0.448125
 C         3.295205         0.455879         1.089920
 C         4.083450        -0.541724         0.021357
 C         3.444961        -0.449683        -1.338076
 O         2.005925        -0.401240        -1.326726
 O         3.440154        -1.705606         0.695638
 C         2.374684        -0.712912         1.133588
 H        -0.388905         0.099303         1.000244
 H        -0.427959         0.843613        -0.720808
 H        -0.432698        -1.064580        -0.505608
 H         2.522635         2.144393        -0.302738
 H         1.661053         1.919980         1.175285
 H         4.029461         0.822600         1.902322
 H         5.235431        -0.558358         0.116661
 H         3.854944         0.416891        -1.852734
 H         3.662205        -1.331968        -1.958545
 H         1.728138        -1.035480         1.930563
