19
Iteration:  4876charge 0 multiplicity 1
 C        -0.022517        -0.106821        -0.035299
 C         1.504471         0.046128        -0.091945
 C         2.217618         1.401662         0.475692
 C         3.328271         0.395440         1.099189
 C         4.066557        -0.557402         0.060680
 C         3.441722        -0.327152        -1.346388
 O         2.016957        -0.369123        -1.373747
 O         3.359993        -1.744592         0.633562
 C         2.423030        -0.785431         1.081348
 H        -0.495667         0.587264        -0.663527
 H        -0.232603        -1.148977        -0.198427
 H        -0.320675         0.059144         1.057105
 H         2.505003         2.271371        -0.229598
 H         1.699883         1.838426         1.386636
 H         3.914660         0.942352         1.928360
 H         5.151312        -0.835929         0.026184
 H         3.786072         0.614038        -1.651248
 H         3.762678        -1.155575        -2.077686
 H         2.149186        -1.072123         2.143594
