19
Iteration:   924
 C         0.055601        -0.197459        -0.157967
 C         1.569057         0.002654         0.032673
 C         2.095467         1.389841         0.490728
 C         3.381585         0.502050         0.981220
 C         4.013490        -0.504089         0.018295
 C         3.473848        -0.494081        -1.377683
 O         2.039705        -0.290613        -1.226865
 O         3.304086        -1.718042         0.685549
 C         2.433021        -0.699636         1.117955
 H        -0.541648         0.320416         0.603235
 H        -0.094109         0.191045        -1.209013
 H        -0.208110        -1.261284        -0.074707
 H         2.348331         2.081271        -0.278018
 H         1.549748         1.915011         1.240959
 H         4.117966         0.725422         1.722890
 H         5.102909        -0.633564         0.096004
 H         3.932129         0.251613        -1.988802
 H         3.673829        -1.483965        -1.870886
 H         1.815449        -0.873545         1.968125
