19
Iteration:   192
 C         0.018916        -0.159187        -0.127846
 C         1.542043         0.039081         0.080443
 C         2.144131         1.430956         0.489397
 C         3.341530         0.503998         0.972824
 C         4.004789        -0.615723        -0.005369
 C         3.491085        -0.389682        -1.404573
 O         2.041336        -0.393359        -1.265374
 O         3.372004        -1.696354         0.660352
 C         2.384127        -0.719824         1.177766
 H        -0.566412        -0.364115         0.791742
 H        -0.335090         0.727350        -0.679179
 H        -0.040376        -1.194985        -0.699556
 H         2.215502         2.287348        -0.345773
 H         1.600182         1.859217         1.332613
 H         4.060857         0.647971         1.871587
 H         5.096047        -0.683716         0.053042
 H         3.944513         0.513057        -1.774546
 H         3.878960        -1.091642        -2.293975
 H         1.875710        -1.257872         2.042497
