19
Iteration:  4743
 C        -0.032666        -0.285630        -0.036630
 C         1.531959         0.077375         0.014128
 C         2.277914         1.430745         0.497342
 C         3.365504         0.426300         1.059079
 C         4.065704        -0.625480        -0.008547
 C         3.488783        -0.361325        -1.358887
 O         2.075545        -0.217755        -1.288676
 O         3.235163        -1.697761         0.581576
 C         2.395092        -0.720849         1.101722
 H        -0.680491        -0.164177        -0.880459
 H        -0.121009        -1.326093         0.120575
 H        -0.426580         0.217777         0.846067
 H         2.672166         2.011178        -0.380941
 H         1.591352         1.958299         1.220896
 H         3.776509         0.687415         2.038920
 H         5.154405        -0.794321         0.060567
 H         3.879129         0.555860        -1.880872
 H         3.702516        -1.298050        -2.049638
 H         1.836847        -1.401042         1.804058
