19
Iteration:  3236charge 0 multiplicity 1
 C        -0.003965        -0.158562        -0.088897
 C         1.525150         0.027452        -0.014603
 C         2.230406         1.338708         0.449687
 C         3.315296         0.463905         1.013088
 C         4.042068        -0.569634         0.020568
 C         3.494218        -0.414947        -1.386579
 O         2.030392        -0.324632        -1.259208
 O         3.376293        -1.650096         0.644307
 C         2.358556        -0.779815         1.183462
 H        -0.599646         0.358615         0.653172
 H        -0.303660         0.464984        -1.067828
 H        -0.472504        -1.169894        -0.075725
 H         2.536262         2.011644        -0.352608
 H         1.809955         1.895016         1.260907
 H         3.911314         0.856776         1.912038
 H         5.095034        -0.643115         0.002320
 H         3.798265         0.553573        -1.679938
 H         3.881533        -1.189337        -2.061805
 H         1.760583        -1.345999         1.935193
