19
Iteration:   558charge 0 multiplicity 1
 C        -0.068509        -0.078476        -0.206793
 C         1.489519        -0.014265         0.029351
 C         2.253081         1.330166         0.541043
 C         3.395951         0.420745         1.033113
 C         3.982576        -0.484629         0.051879
 C         3.430477        -0.249551        -1.376351
 O         2.079115        -0.537944        -1.299670
 O         3.366752        -1.674400         0.624414
 C         2.419301        -0.748627         1.207711
 H        -0.689387         0.002264         0.759288
 H        -0.200237         0.827211        -0.852320
 H        -0.430541        -0.972937        -0.760248
 H         2.546616         2.031943        -0.217356
 H         1.683021         1.862575         1.378608
 H         4.117060         0.683103         1.814817
 H         5.097005        -0.527859        -0.090815
 H         3.698293         0.649464        -1.806461
 H         3.744035        -1.194036        -2.084386
 H         1.936344        -0.994290         2.112580
