19
Iteration:  1975
 C         0.011997        -0.185843         0.066193
 C         1.539636         0.042763        -0.089008
 C         2.284991         1.363401         0.328769
 C         3.302575         0.427464         1.080197
 C         4.022792        -0.531289         0.143186
 C         3.563758        -0.261114        -1.425431
 O         2.003046        -0.327856        -1.343326
 O         3.287511        -1.780523         0.629759
 C         2.353090        -0.766491         1.133727
 H        -0.424838         0.405625         0.992576
 H        -0.580989         0.137171        -0.765727
 H        -0.077614        -1.269975         0.219455
 H         2.595843         1.910540        -0.617851
 H         1.801573         2.025170         1.036374
 H         3.867227         0.831106         1.894866
 H         5.176851        -0.698926         0.167885
 H         3.873428         0.724169        -1.664417
 H         3.883349        -1.219528        -1.855511
 H         1.750188        -1.097785         1.958475
