19
Iteration:   664
 C         0.020497        -0.111505        -0.257374
 C         1.493148         0.030977         0.050521
 C         2.189628         1.254768         0.528052
 C         3.379194         0.427716         1.065841
 C         4.022558        -0.535757         0.011642
 C         3.421731        -0.336813        -1.392281
 O         2.053445        -0.474803        -1.264256
 O         3.291036        -1.583443         0.621858
 C         2.491431        -0.710879         1.262013
 H        -0.664282         0.102646         0.544966
 H        -0.353318         0.516527        -1.017374
 H        -0.063273        -1.103023        -0.574619
 H         2.517070         2.016124        -0.265306
 H         1.643080         1.754868         1.305433
 H         4.056534         0.814579         1.753279
 H         5.040683        -0.775455        -0.040489
 H         3.807769         0.571055        -2.052817
 H         3.773707        -1.061552        -1.967555
 H         1.973828        -1.045291         2.184146
