19
Iteration:  2043
 C         0.017181         0.017049        -0.194905
 C         1.519846        -0.072450         0.041176
 C         2.190139         1.280722         0.486755
 C         3.332009         0.462623         1.049582
 C         4.032287        -0.512591         0.018665
 C         3.494493        -0.393423        -1.402275
 O         1.962077        -0.417437        -1.265946
 O         3.392989        -1.646015         0.599840
 C         2.427402        -0.788313         1.241469
 H        -0.513207        -0.027271         0.843804
 H        -0.208550         1.017977        -0.464017
 H        -0.381446        -0.790383        -0.835962
 H         2.373613         1.979377        -0.344940
 H         1.615334         1.643734         1.288541
 H         4.083874         0.821314         1.746309
 H         5.135446        -0.690858         0.088990
 H         3.783498         0.552451        -1.934711
 H         3.792096        -1.312323        -1.966692
 H         1.940662        -1.024305         2.157694
