19
Iteration:  3767charge 0 multiplicity 1
 C        -0.001342         0.001650         0.008820
 C         1.521149        -0.000430        -0.002895
 C         2.218414         1.295401         0.339811
 C         3.261134         0.484074         1.005529
 C         4.062922        -0.525643         0.044576
 C         3.524901        -0.384984        -1.347226
 O         2.043743        -0.390010        -1.277838
 O         3.398949        -1.720249         0.631254
 C         2.316042        -0.818330         1.145649
 H        -0.451618         0.784317         0.558129
 H        -0.296380         0.035641        -0.987204
 H        -0.329348        -1.048897         0.491791
 H         2.346146         1.964124        -0.517041
 H         1.705371         1.754032         1.173097
 H         3.861018         0.786048         1.881497
 H         5.140247        -0.411275        -0.012676
 H         3.789033         0.543009        -1.892418
 H         3.805107        -1.179967        -2.006214
 H         1.973238        -1.006886         2.130718
