19
Iteration:  4903charge 0 multiplicity 1
 C         0.083459        -0.226746         0.018131
 C         1.538104         0.038220         0.035651
 C         2.260057         1.297733         0.382981
 C         3.351474         0.386255         1.080161
 C         3.978693        -0.548990         0.012617
 C         3.482994        -0.268148        -1.411322
 O         2.104623        -0.218886        -1.301469
 O         3.218113        -1.720952         0.611038
 C         2.305128        -0.748944         1.133468
 H        -0.388127         0.048513        -1.011751
 H         0.087642        -1.336610         0.197951
 H        -0.344038         0.012157         0.933871
 H         2.436784         1.829822        -0.510492
 H         1.871163         1.825609         1.223065
 H         3.955093         0.982304         1.676989
 H         5.010375        -0.859349         0.013739
 H         4.101797         0.628944        -1.878680
 H         3.684381        -1.176390        -1.914839
 H         1.879714        -0.982000         2.101571
