19
Iteration:  1464
 C        -0.002397        -0.111296        -0.101070
 C         1.556458         0.006130        -0.020553
 C         2.328423         1.381558         0.316847
 C         3.361886         0.520638         1.089495
 C         4.095537        -0.584730         0.085625
 C         3.476456        -0.300370        -1.318179
 O         1.989332        -0.465685        -1.280523
 O         3.277360        -1.729268         0.625056
 C         2.351518        -0.739011         1.142435
 H        -0.593420         0.442722         0.811730
 H        -0.386652         0.171710        -1.062707
 H        -0.281033        -1.182150         0.142256
 H         2.476164         2.243748        -0.330110
 H         1.654715         1.692987         1.095557
 H         4.083385         0.842778         1.806186
 H         5.136091        -0.739363         0.182699
 H         3.504400         0.705999        -1.434509
 H         3.856497        -0.791596        -2.150469
 H         1.732661        -1.266293         1.896037
