19
Iteration:   905
 C         0.062275        -0.183195        -0.229764
 C         1.497971         0.018483         0.093139
 C         2.222476         1.307245         0.417087
 C         3.340953         0.526104         1.006725
 C         4.023207        -0.568489        -0.022923
 C         3.517008        -0.443743        -1.404802
 O         2.002270        -0.334434        -1.233248
 O         3.313533        -1.636944         0.638383
 C         2.382878        -0.722249         1.291501
 H        -0.577272         0.113936         0.635210
 H        -0.100105         0.248314        -1.142237
 H        -0.160438        -1.233637        -0.199208
 H         2.310780         2.124539        -0.354462
 H         1.789766         1.776772         1.280115
 H         3.946986         0.981996         1.883349
 H         5.054018        -0.643679         0.036085
 H         3.971447         0.478165        -2.013321
 H         3.676475        -1.372155        -1.951903
 H         1.934781        -1.057508         2.341073
