19
Iteration:  3981charge 0 multiplicity 1
 C        -0.027321        -0.124511         0.007025
 C         1.526050         0.050356        -0.000015
 C         2.228423         1.414269         0.461116
 C         3.292514         0.472447         1.143094
 C         4.061315        -0.522332         0.030891
 C         3.525961        -0.442819        -1.356575
 O         2.000407        -0.357318        -1.308423
 O         3.394347        -1.670759         0.553038
 C         2.364811        -0.807221         1.062429
 H        -0.594961         0.712857        -0.524468
 H        -0.225921        -1.027701        -0.641356
 H        -0.539104        -0.303318         1.009504
 H         2.719380         2.045992        -0.208535
 H         1.502012         1.897320         1.078699
 H         4.082865         0.724654         1.885486
 H         5.159649        -0.735654         0.088065
 H         3.858969         0.383885        -1.892758
 H         3.715069        -1.392309        -1.975345
 H         1.809135        -1.252486         1.895913
