19
Iteration:  1185charge 0 multiplicity 1
 C         0.032755        -0.066068        -0.024182
 C         1.531668         0.061890        -0.074405
 C         2.141754         1.373808         0.491517
 C         3.299183         0.493273         1.052956
 C         4.032072        -0.507234         0.048758
 C         3.487617        -0.539755        -1.377239
 O         2.062876        -0.369110        -1.404206
 O         3.433899        -1.684088         0.699199
 C         2.341330        -0.766922         1.143577
 H        -0.433788        -0.200389         0.921325
 H        -0.340163         0.812939        -0.644043
 H        -0.323480        -0.984385        -0.548283
 H         2.322760         2.233492        -0.090588
 H         1.481188         1.692649         1.346629
 H         3.976872         0.880140         1.817383
 H         5.171104        -0.700266         0.051780
 H         3.852358         0.375015        -1.982257
 H         3.762029        -1.572890        -1.760503
 H         1.654456        -1.189203         1.840582
