19
Iteration:  1183
 C         0.036883        -0.055667        -0.035958
 C         1.532278         0.058250        -0.071255
 C         2.142453         1.359381         0.511313
 C         3.288319         0.488371         1.050395
 C         4.021867        -0.490287         0.051211
 C         3.484577        -0.544356        -1.397927
 O         2.066750        -0.371108        -1.403620
 O         3.446333        -1.686281         0.699149
 C         2.339395        -0.763971         1.156125
 H        -0.388752        -0.194914         0.908393
 H        -0.374305         0.891036        -0.672239
 H        -0.309671        -1.004385        -0.539411
 H         2.340486         2.186519        -0.071763
 H         1.471710         1.731312         1.337080
 H         3.965084         0.868518         1.734870
 H         5.126953        -0.683392         0.093523
 H         3.859950         0.295591        -1.991524
 H         3.766504        -1.556374        -1.807802
 H         1.652051        -1.152803         1.917580
