19
Iteration:  1052
 C        -0.007547        -0.146688        -0.105192
 C         1.488817        -0.051350        -0.009468
 C         2.209439         1.343719         0.458677
 C         3.330333         0.447990         1.011265
 C         4.058607        -0.498859         0.050041
 C         3.465165        -0.490478        -1.367489
 O         2.006834        -0.238786        -1.394675
 O         3.391184        -1.683631         0.723140
 C         2.392261        -0.728825         1.215528
 H        -0.510535         0.101541         0.729863
 H        -0.266220         0.610384        -0.922885
 H        -0.207084        -1.107308        -0.565771
 H         2.458776         1.994388        -0.304822
 H         1.583149         1.725947         1.309104
 H         3.994969         0.709948         1.752146
 H         5.200278        -0.429483         0.093199
 H         3.993337         0.332118        -1.980926
 H         3.619626        -1.527210        -1.720499
 H         1.982229        -1.071903         2.122103
