19
Iteration:   873charge 0 multiplicity 1
 C         0.042654        -0.116203        -0.045414
 C         1.521013        -0.000218        -0.090419
 C         2.278505         1.357410         0.331942
 C         3.285157         0.485795         1.024735
 C         4.050999        -0.516617         0.060845
 C         3.472178        -0.309734        -1.319239
 O         2.047981        -0.521734        -1.286351
 O         3.345559        -1.698724         0.699052
 C         2.303008        -0.731140         1.098090
 H        -0.058320         0.082508         1.079091
 H        -0.544992         0.640384        -0.502588
 H        -0.242168        -1.131925        -0.344209
 H         2.610445         2.238918        -0.365759
 H         1.732577         1.820414         1.231605
 H         3.716327         0.853048         2.041979
 H         5.134404        -0.604543        -0.053818
 H         3.827491         0.743576        -1.618226
 H         3.895055        -0.979252        -2.037910
 H         1.652886        -1.094574         2.041923
