19
Iteration:  3692charge 0 multiplicity 1
 C        -0.058389        -0.160872         0.016023
 C         1.539902        -0.022362         0.061726
 C         2.224170         1.328955         0.296761
 C         3.340854         0.491416         1.052174
 C         4.003677        -0.630303         0.097314
 C         3.521568        -0.369154        -1.361288
 O         2.062357        -0.363831        -1.409992
 O         3.270135        -1.672568         0.629113
 C         2.450758        -0.702307         1.223653
 H        -0.475938        -0.487995         0.927888
 H        -0.450907         0.797757        -0.223364
 H        -0.277414        -0.824496        -0.843301
 H         2.500918         2.068852        -0.411158
 H         1.803629         1.868440         1.074161
 H         4.053990         1.069045         1.703633
 H         5.081073        -0.789209         0.208294
 H         3.912335         0.652732        -1.846285
 H         3.830596        -1.077128        -2.079972
 H         1.891945        -0.843650         2.152420
