19
Iteration:   507
 C        -0.043768        -0.092574         0.015944
 C         1.502370         0.010687        -0.068382
 C         2.228674         1.288428         0.444343
 C         3.265186         0.437851         1.126650
 C         4.086160        -0.496068         0.051160
 C         3.580776        -0.427586        -1.381994
 O         2.034404        -0.384810        -1.346928
 O         3.359457        -1.666033         0.605250
 C         2.357951        -0.748906         1.120051
 H        -0.424837        -0.020970         1.012030
 H        -0.459560         0.700283        -0.606669
 H        -0.313773        -1.109641        -0.312662
 H         2.497459         2.122137        -0.262525
 H         1.600766         1.940409         1.134731
 H         3.833696         0.684411         2.109994
 H         5.222990        -0.482250        -0.021943
 H         3.883776         0.629689        -1.959672
 H         3.869752        -1.086599        -2.125125
 H         1.724332        -1.148302         2.008405
