19
Iteration:  3710
 C         0.061325        -0.243684        -0.075653
 C         1.535352         0.035569        -0.009166
 C         2.248296         1.344278         0.424426
 C         3.416424         0.487014         0.955063
 C         4.053535        -0.592820        -0.002014
 C         3.489388        -0.380772        -1.364644
 O         2.049511        -0.323787        -1.213375
 O         3.206173        -1.679881         0.697153
 C         2.319242        -0.662763         1.121581
 H        -0.268972        -0.471071         0.949244
 H        -0.596354         0.567570        -0.405920
 H        -0.130361        -1.143612        -0.807711
 H         2.306708         2.015010        -0.478257
 H         1.770235         2.004414         1.219136
 H         4.162061         0.687071         1.696878
 H         5.121891        -0.757328        -0.044837
 H         3.900115         0.523947        -1.806638
 H         3.737104        -1.295791        -1.952910
 H         1.883209        -0.828506         2.105320
