19
Iteration:   772charge 0 multiplicity 1
 C        -0.002668        -0.221084        -0.173217
 C         1.497167         0.033448         0.069299
 C         2.251930         1.334786         0.447770
 C         3.411521         0.530536         1.031330
 C         4.029928        -0.574905        -0.002297
 C         3.519397        -0.330787        -1.371967
 O         2.031537        -0.392927        -1.293732
 O         3.239627        -1.677794         0.666931
 C         2.408311        -0.700401         1.191546
 H        -0.642059         0.120981         0.646241
 H        -0.381422         0.124810        -1.114479
 H        -0.021695        -1.301055        -0.206044
 H         2.299349         2.075926        -0.437034
 H         1.839054         1.823189         1.307848
 H         3.988869         0.976984         1.785816
 H         5.003508        -0.873437        -0.027174
 H         3.850359         0.559297        -1.775763
 H         3.886714        -1.245904        -1.870787
 H         1.912272        -0.904859         2.218469
