19
Iteration:  2962charge 0 multiplicity 1
 C         0.068300        -0.206291        -0.022610
 C         1.528676         0.032244        -0.100094
 C         2.314718         1.387940         0.464581
 C         3.304449         0.432158         1.070158
 C         4.032443        -0.551068         0.101082
 C         3.460993        -0.360091        -1.338107
 O         2.070049        -0.361538        -1.307419
 O         3.256255        -1.682166         0.570714
 C         2.326822        -0.718972         1.105104
 H        -0.117757        -0.062665         0.996804
 H        -0.688046         0.252875        -0.671746
 H        -0.129459        -1.230390        -0.340238
 H         2.492487         2.175110        -0.308292
 H         1.893384         1.768996         1.394922
 H         3.926145         0.991389         1.778156
 H         5.159846        -0.595517         0.123818
 H         3.820002         0.535571        -1.741710
 H         3.619233        -1.213804        -2.056409
 H         1.827435        -1.031079         2.051894
