19
Iteration:   996charge 0 multiplicity 1
 C        -0.043946        -0.022217        -0.066556
 C         1.516171        -0.023265        -0.069783
 C         2.287616         1.268331         0.323166
 C         3.340613         0.487209         1.111348
 C         4.029711        -0.454005         0.060084
 C         3.520049        -0.281762        -1.299478
 O         2.045096        -0.581272        -1.225456
 O         3.302805        -1.664319         0.591218
 C         2.371146        -0.749240         1.138947
 H        -0.304560        -0.105142         0.940437
 H        -0.454798         0.825265        -0.631628
 H        -0.443549        -0.977275        -0.384163
 H         2.508076         1.920837        -0.503295
 H         1.539187         1.885226         0.928939
 H         4.020889         0.822774         1.878743
 H         5.150263        -0.521558         0.114806
 H         3.778055         0.754882        -1.758775
 H         3.933969        -1.035290        -1.994186
 H         1.912148        -1.266621         1.991540
