19
Iteration:  3005
 C         0.039313        -0.145994        -0.101480
 C         1.553108        -0.048766        -0.027878
 C         2.251887         1.290661         0.426468
 C         3.326737         0.502808         0.992612
 C         3.955819        -0.537126         0.002258
 C         3.492865        -0.333856        -1.382498
 O         2.032684        -0.244472        -1.271619
 O         3.322401        -1.715862         0.646348
 C         2.383134        -0.794213         1.224558
 H        -0.313815         0.540814         0.630008
 H        -0.427274         0.048168        -1.108789
 H        -0.268972        -1.200152         0.165970
 H         2.601262         2.137125        -0.181865
 H         1.672815         1.571792         1.282290
 H         3.911366         0.808133         1.866469
 H         4.992761        -0.771916         0.039658
 H         3.914610         0.515962        -1.820369
 H         3.837778        -1.285862        -1.795732
 H         1.825530        -1.114994         2.121353
