19
Iteration:  4912
 C         0.122648        -0.282931         0.011850
 C         1.534818         0.115758        -0.026462
 C         2.244741         1.359295         0.409033
 C         3.344605         0.446500         1.037343
 C         4.015593        -0.578176         0.030936
 C         3.483462        -0.315457        -1.400611
 O         2.082289        -0.238159        -1.282863
 O         3.154650        -1.729110         0.565498
 C         2.375739        -0.786921         1.212159
 H        -0.387186        -0.096441        -0.897706
 H         0.008563        -1.395329         0.002011
 H        -0.427013         0.193385         0.808262
 H         2.616344         2.053100        -0.361869
 H         1.773558         1.946786         1.201890
 H         3.971894         0.735152         1.915493
 H         5.096110        -0.755182         0.057948
 H         3.722847         0.616354        -1.945898
 H         3.888563        -1.098529        -2.001543
 H         1.942821        -1.132733         2.211537
