19
Iteration:  4909
 C         0.121503        -0.261002         0.008558
 C         1.528102         0.104209        -0.012526
 C         2.239626         1.328467         0.391390
 C         3.341183         0.421371         1.050526
 C         4.002370        -0.567802         0.027058
 C         3.469278        -0.282896        -1.414431
 O         2.102643        -0.226443        -1.282540
 O         3.167924        -1.725223         0.586342
 C         2.348890        -0.790526         1.183318
 H        -0.319204        -0.119568        -0.927183
 H         0.013477        -1.348633         0.063553
 H        -0.435424         0.120751         0.977368
 H         2.598184         1.982099        -0.494761
 H         1.821783         1.896285         1.279167
 H         4.025667         0.886198         1.903959
 H         5.099456        -0.807727         0.013757
 H         3.818618         0.566829        -1.922473
 H         3.917259        -1.211345        -1.985134
 H         1.974811        -1.071542         2.226742
