19
Iteration:   275charge 0 multiplicity 1
 C        -0.031046        -0.081208        -0.093146
 C         1.503012        -0.071683        -0.035538
 C         2.192212         1.342310         0.514715
 C         3.351932         0.496915         1.068079
 C         4.039394        -0.514334         0.067641
 C         3.480675        -0.424264        -1.361855
 O         1.977873        -0.370989        -1.420338
 O         3.430261        -1.673944         0.621369
 C         2.422322        -0.792127         1.211458
 H        -0.460189         0.659927         0.650787
 H        -0.259921         0.364243        -1.079295
 H        -0.531664        -0.990782        -0.035328
 H         2.461929         2.179590        -0.103587
 H         1.607719         1.772718         1.490097
 H         4.049304         0.856161         1.794998
 H         5.155542        -0.481176         0.140996
 H         3.846451         0.445234        -1.950790
 H         3.747661        -1.306344        -1.815273
 H         1.815805        -1.170898         2.035745
