19
Iteration:  1608
 C         0.019462        -0.080107         0.019925
 C         1.524807        -0.015523        -0.041258
 C         2.275004         1.299840         0.335644
 C         3.288884         0.436539         1.123096
 C         4.008475        -0.488465         0.078764
 C         3.548073        -0.280452        -1.334705
 O         2.093659        -0.493284        -1.401939
 O         3.212842        -1.683408         0.614559
 C         2.415617        -0.730033         1.168022
 H        -0.436099         0.353438         0.958568
 H        -0.473905         0.309263        -0.912710
 H        -0.361661        -1.090671         0.175545
 H         2.627354         1.915857        -0.422666
 H         1.531034         1.854419         0.916703
 H         3.921599         0.832455         1.926938
 H         5.060427        -0.610428         0.194248
 H         3.763848         0.785646        -1.855214
 H         4.037247        -1.058865        -1.893416
 H         1.924410        -1.089645         2.116942
