19
Iteration:  3815charge 0 multiplicity 1
 C         0.109334        -0.071968        -0.089970
 C         1.572651         0.004008        -0.008183
 C         2.265151         1.304618         0.449754
 C         3.313340         0.464099         1.058774
 C         3.953214        -0.504835         0.022655
 C         3.440615        -0.315410        -1.387344
 O         1.979217        -0.530951        -1.246864
 O         3.307880        -1.629363         0.579852
 C         2.394890        -0.768596         1.218812
 H        -0.320826         0.982406        -0.017581
 H        -0.132744        -0.469093        -1.141479
 H        -0.295841        -0.640665         0.672188
 H         2.731781         1.952429        -0.263240
 H         1.694112         1.821404         1.174066
 H         4.165786         0.704318         1.763861
 H         5.076818        -0.477036         0.109342
 H         3.721767         0.768534        -1.794763
 H         3.948469        -1.029649        -2.101559
 H         1.683832        -1.315054         1.906187
