19
Iteration:  1879charge 0 multiplicity 1
 C         0.018770         0.036628        -0.014301
 C         1.507389        -0.040594        -0.082035
 C         2.188179         1.300127         0.364951
 C         3.271556         0.486234         1.097676
 C         4.022920        -0.520138         0.037745
 C         3.569473        -0.347524        -1.294620
 O         1.994639        -0.538248        -1.363640
 O         3.387747        -1.648103         0.630774
 C         2.396116        -0.782773         1.162426
 H        -0.518957         0.086492         1.043023
 H        -0.264237         0.917225        -0.481377
 H        -0.369019        -0.820927        -0.567565
 H         2.618859         1.931115        -0.470972
 H         1.656898         1.894007         1.034747
 H         3.830166         0.776143         2.002407
 H         5.137972        -0.514725         0.175485
 H         3.826501         0.736350        -1.498048
 H         3.827705        -1.251643        -1.925154
 H         1.905958        -1.281984         1.952288
