19
Iteration:  1875charge 0 multiplicity 1
 C         0.047668         0.015310        -0.012711
 C         1.535379        -0.066652        -0.074524
 C         2.199215         1.296298         0.352150
 C         3.290352         0.502309         1.132638
 C         3.986244        -0.505221         0.065667
 C         3.532583        -0.331833        -1.330181
 O         2.011478        -0.537376        -1.356632
 O         3.379204        -1.643703         0.623797
 C         2.372652        -0.770344         1.138147
 H        -0.322087         0.097539         1.094634
 H        -0.305801         1.036150        -0.457990
 H        -0.507822        -0.836263        -0.490318
 H         2.552811         1.871411        -0.492582
 H         1.475723         1.869423         1.000729
 H         3.938311         0.723469         1.976310
 H         5.113642        -0.659576         0.246582
 H         3.970390         0.648413        -1.605028
 H         3.950939        -1.194519        -1.954846
 H         1.776909        -1.261928         1.954686
