19
Iteration:  1799charge 0 multiplicity 1
 C         0.096854        -0.179446        -0.137654
 C         1.549505         0.050652         0.007361
 C         2.153086         1.390082         0.480361
 C         3.379849         0.444311         0.987962
 C         3.931602        -0.626912         0.003613
 C         3.464820        -0.420035        -1.415757
 O         2.080037        -0.311409        -1.285294
 O         3.328472        -1.678242         0.690243
 C         2.322859        -0.680682         1.242917
 H        -0.641146         0.378445         0.501633
 H        -0.140839         0.000223        -1.186652
 H        -0.051371        -1.270180        -0.084063
 H         2.292638         1.951709        -0.407097
 H         1.762980         1.946757         1.294149
 H         4.130012         0.706660         1.734568
 H         5.049848        -0.632270         0.220117
 H         3.895081         0.428346        -1.881854
 H         3.899595        -1.234688        -2.066851
 H         1.943952        -1.090314         2.181138
