19
Iteration:  3545
 C         0.054106        -0.202194         0.006576
 C         1.527084         0.067362        -0.047189
 C         2.260424         1.413976         0.339494
 C         3.289170         0.431618         1.096193
 C         3.994412        -0.529004         0.056782
 C         3.543992        -0.368583        -1.330441
 O         2.036621        -0.340627        -1.264004
 O         3.292239        -1.750629         0.551169
 C         2.384982        -0.714264         1.132216
 H        -0.282311         0.126483         1.047451
 H        -0.547788         0.357333        -0.790661
 H        -0.028496        -1.228235        -0.158596
 H         2.534090         2.124533        -0.432276
 H         1.708393         1.892384         1.174811
 H         3.990400         0.814417         1.841227
 H         5.044190        -0.829487         0.141851
 H         3.731684         0.662262        -1.702210
 H         3.615048        -1.354231        -1.859016
 H         1.785774        -1.209092         1.901304
