19
Iteration:  1609charge 0 multiplicity 1
 C         0.018217        -0.081276         0.021360
 C         1.532828        -0.019519        -0.037889
 C         2.274167         1.304352         0.332716
 C         3.291505         0.442655         1.118966
 C         4.005690        -0.485987         0.078550
 C         3.546887        -0.275695        -1.331140
 O         2.088538        -0.490060        -1.408026
 O         3.215612        -1.692867         0.617378
 C         2.410975        -0.732996         1.167674
 H        -0.402580         0.364343         0.932875
 H        -0.506658         0.306257        -0.924407
 H        -0.338956        -1.105781         0.184176
 H         2.653530         1.927004        -0.403043
 H         1.523422         1.849147         0.950459
 H         3.900663         0.865454         1.957859
 H         5.072563        -0.636675         0.194626
 H         3.784394         0.783272        -1.872598
 H         4.039127        -1.092860        -1.904991
 H         1.906710        -1.075734         2.132915
