19
Iteration:  4433charge 0 multiplicity 1
 C        -0.065999        -0.167037         0.125677
 C         1.576950         0.041095        -0.028837
 C         2.255288         1.350176         0.474490
 C         3.287784         0.484568         1.029565
 C         4.095157        -0.559285         0.008520
 C         3.499704        -0.365646        -1.375800
 O         2.080009        -0.319354        -1.357006
 O         3.327196        -1.704836         0.636103
 C         2.315831        -0.781116         1.052110
 H        -0.542372         0.821079        -0.142283
 H        -0.263058        -0.851160        -0.798345
 H        -0.469245        -0.593816         1.034997
 H         2.376255         2.149471        -0.381254
 H         1.646440         1.922522         1.322049
 H         3.912027         0.925386         1.901609
 H         5.215393        -0.678276         0.078862
 H         3.917023         0.399352        -1.987531
 H         3.841097        -1.346417        -1.998150
 H         1.739769        -1.310540         1.879572
