19
Iteration:  4448charge 0 multiplicity 1
 C         0.057832        -0.188638         0.017311
 C         1.477726        -0.025639         0.017605
 C         2.157956         1.313874         0.381250
 C         3.359803         0.406858         1.030156
 C         3.973570        -0.561460         0.037906
 C         3.536558        -0.396767        -1.422387
 O         2.064390        -0.184391        -1.334368
 O         3.311810        -1.711981         0.631275
 C         2.393196        -0.723921         1.168904
 H        -0.561429         0.742107         0.064635
 H        -0.315002        -0.923499        -0.667109
 H        -0.055965        -0.503594         1.071845
 H         2.483016         1.943034        -0.414680
 H         1.689852         1.928202         1.082921
 H         3.985045         0.677986         1.825958
 H         5.056508        -0.674858         0.124601
 H         4.112594         0.506043        -1.812705
 H         3.716623        -1.218739        -2.084556
 H         1.850467        -0.941563         2.091044
