19
Iteration:  2942
 C         0.045577        -0.113642        -0.016361
 C         1.578802        -0.028728         0.028222
 C         2.216826         1.323721         0.400867
 C         3.348034         0.446918         1.124832
 C         3.954777        -0.508421         0.027987
 C         3.571955        -0.274878        -1.388070
 O         2.036806        -0.447028        -1.323557
 O         3.253503        -1.687119         0.610801
 C         2.375765        -0.733062         1.162053
 H        -0.448921        -0.189689         0.880686
 H        -0.388186         0.688893        -0.730917
 H        -0.160519        -0.979600        -0.568992
 H         2.588174         1.993130        -0.410287
 H         1.585823         1.967601         1.072913
 H         4.003215         0.701861         1.977317
 H         5.085753        -0.777060        -0.073214
 H         3.766876         0.663321        -1.934895
 H         3.845327        -1.038331        -2.137301
 H         1.837732        -1.147802         2.063736
