19
Iteration:  2304charge 0 multiplicity 1
 C         0.018562        -0.008655        -0.095751
 C         1.552837        -0.001013        -0.021883
 C         2.274346         1.238617         0.405782
 C         3.314192         0.419565         1.102665
 C         3.986736        -0.507667         0.002577
 C         3.469566        -0.350740        -1.420689
 O         2.008931        -0.416079        -1.280924
 O         3.345164        -1.621469         0.678092
 C         2.407537        -0.810497         1.173181
 H        -0.432553         0.673302         0.779660
 H        -0.416723         0.409957        -1.018164
 H        -0.338648        -1.091417         0.009871
 H         2.572675         2.046219        -0.407381
 H         1.612852         1.597065         1.226225
 H         3.997317         0.726555         1.824025
 H         5.160188        -0.614656         0.029979
 H         3.610567         0.659361        -1.707067
 H         3.917706        -1.222160        -2.018525
 H         1.829194        -1.258791         1.983079
