19
Iteration:  1261charge 0 multiplicity 1
 C         0.001403        -0.095221        -0.080883
 C         1.486857         0.067816        -0.011491
 C         2.269517         1.368660         0.438356
 C         3.381695         0.438277         1.021064
 C         4.062455        -0.494887         0.046892
 C         3.489555        -0.390957        -1.302941
 O         2.029674        -0.470983        -1.289055
 O         3.329263        -1.674758         0.636157
 C         2.336142        -0.730630         1.093719
 H        -0.585770         0.500745         0.649860
 H        -0.495403         0.130106        -1.181263
 H        -0.209718        -1.220115        -0.006200
 H         2.316404         2.233776        -0.166798
 H         1.717136         1.525204         1.395431
 H         4.008798         0.792496         1.836691
 H         5.219133        -0.605897         0.039792
 H         3.885322         0.480100        -1.753590
 H         3.794234        -1.265781        -1.939929
 H         1.739743        -1.113772         1.921359
