19
Iteration:   505
 C        -0.040778        -0.100334         0.031843
 C         1.506577         0.019461        -0.078820
 C         2.228051         1.285787         0.441135
 C         3.256506         0.429508         1.140235
 C         4.104174        -0.496647         0.059097
 C         3.576605        -0.422218        -1.396622
 O         2.036393        -0.384855        -1.356437
 O         3.349139        -1.650677         0.608178
 C         2.354030        -0.753273         1.120382
 H        -0.422348         0.021895         1.084706
 H        -0.500174         0.683445        -0.608851
 H        -0.300434        -1.122071        -0.300434
 H         2.556064         2.070586        -0.252476
 H         1.554044         1.956324         1.133533
 H         3.794745         0.690375         2.093824
 H         5.256410        -0.518144         0.019527
 H         3.912438         0.599377        -1.951323
 H         3.865673        -1.134692        -2.200671
 H         1.757265        -1.147184         1.950270
