19
Iteration:    11charge 0 multiplicity 1
 C         0.028868        -0.123241        -0.030486
 C         1.560348        -0.038852         0.012716
 C         2.088556         1.376877         0.380111
 C         3.281731         0.453277         1.082075
 C         4.068480        -0.548599         0.048501
 C         3.449909        -0.393034        -1.368111
 O         2.039791        -0.350293        -1.292848
 O         3.419306        -1.707505         0.660287
 C         2.422717        -0.711409         1.045252
 H        -0.444284         0.127963         0.868511
 H        -0.268141         0.652518        -0.695380
 H        -0.415783        -1.110998        -0.326356
 H         2.361347         2.093442        -0.286062
 H         1.662771         1.871890         1.260560
 H         3.846044         0.837756         1.988260
 H         5.216963        -0.595594         0.025336
 H         3.915115         0.337176        -1.947554
 H         3.646364        -1.308052        -1.871397
 H         1.793111        -1.081140         1.869608
