19
Iteration:  3433
 C         0.110825        -0.219835         0.058909
 C         1.563818        -0.042918        -0.063605
 C         2.254339         1.360610         0.421069
 C         3.356369         0.436868         1.036322
 C         3.978274        -0.586326         0.030616
 C         3.487048        -0.302797        -1.432351
 O         2.093987        -0.296931        -1.366441
 O         3.263334        -1.716481         0.683714
 C         2.260545        -0.712119         1.150123
 H        -0.229717         0.205963         0.962097
 H        -0.436132         0.239005        -0.772563
 H        -0.137516        -1.225707         0.002423
 H         2.442605         2.168939        -0.292292
 H         1.695730         1.839096         1.241239
 H         4.051266         0.728784         1.848868
 H         5.030674        -0.748435         0.111394
 H         3.717006         0.753496        -1.708672
 H         3.957226        -1.052907        -2.030509
 H         1.519872        -0.816258         1.950127
