19
Iteration:  1829
 C        -0.026593        -0.210044        -0.029249
 C         1.528317         0.005015        -0.069712
 C         2.263412         1.404695         0.385803
 C         3.404668         0.506840         1.089984
 C         4.039893        -0.612944         0.097609
 C         3.440902        -0.380846        -1.318618
 O         2.091897        -0.387891        -1.336239
 O         3.294575        -1.698691         0.618699
 C         2.338657        -0.671071         1.132088
 H        -0.537687         0.288658         0.782545
 H        -0.554169         0.342252        -0.999603
 H        -0.281792        -1.323266        -0.091830
 H         2.564853         1.956646        -0.486451
 H         1.766936         2.085853         1.238719
 H         3.965999         0.934717         1.967186
 H         5.140183        -0.707521         0.111935
 H         3.754316         0.659905        -1.760837
 H         3.821946        -1.149297        -1.972930
 H         1.769409        -1.123383         2.041427
