19
Iteration:  3050
 C        -0.018946        -0.030013        -0.081765
 C         1.566081        -0.000063        -0.061464
 C         2.260613         1.336444         0.429979
 C         3.289565         0.412476         1.134974
 C         4.021216        -0.434437         0.030257
 C         3.423162        -0.291874        -1.373744
 O         2.084056        -0.548765        -1.248289
 O         3.346270        -1.684566         0.576307
 C         2.355035        -0.805616         1.148776
 H        -0.360917         0.526220         0.724453
 H        -0.287911         0.606570        -1.022938
 H        -0.370564        -1.052707        -0.052090
 H         2.654855         2.119242        -0.240169
 H         1.680495         1.783167         1.237258
 H         4.141297         0.670888         1.836919
 H         5.102573        -0.436015         0.105494
 H         3.639185         0.726927        -1.773261
 H         3.806054        -1.139517        -2.020056
 H         1.811420        -1.241896         2.036975
