19
Iteration:  3239charge 0 multiplicity 1
 C         0.003565        -0.165147        -0.100284
 C         1.532324         0.007277        -0.003067
 C         2.235592         1.322224         0.457259
 C         3.328443         0.478305         1.013136
 C         4.041484        -0.595827         0.018115
 C         3.483475        -0.401792        -1.372288
 O         2.029456        -0.314018        -1.271491
 O         3.369673        -1.631720         0.659437
 C         2.355981        -0.773118         1.170311
 H        -0.590941         0.377472         0.692440
 H        -0.298037         0.404518        -0.989453
 H        -0.396989        -1.121723        -0.183280
 H         2.499005         1.994676        -0.342808
 H         1.749083         1.867824         1.278159
 H         3.919897         0.833013         1.836192
 H         5.133322        -0.684366         0.005305
 H         3.782137         0.609392        -1.726742
 H         3.772323        -1.241282        -2.080301
 H         1.739283        -1.288188         1.914098
