19
Iteration:  4379
 C        -0.045851         0.015257        -0.133441
 C         1.532516        -0.121331         0.061236
 C         2.231356         1.278332         0.410022
 C         3.324969         0.422501         1.046227
 C         4.023434        -0.530229        -0.002907
 C         3.420180        -0.205797        -1.348676
 O         1.995941        -0.447989        -1.179041
 O         3.409492        -1.695450         0.558502
 C         2.461369        -0.829032         1.189977
 H        -0.071069         0.734729        -1.005028
 H        -0.594713        -0.960394        -0.422158
 H        -0.421499         0.610984         0.632082
 H         2.289445         1.823028        -0.539503
 H         1.753371         1.892659         1.214498
 H         4.102692         0.760468         1.818631
 H         5.144273        -0.607373         0.132294
 H         3.602744         0.832231        -1.602361
 H         3.807172        -0.790134        -2.278254
 H         1.988529        -1.286801         2.120332
