19
Iteration:  4599charge 0 multiplicity 1
 C         0.044945        -0.293613        -0.031202
 C         1.515930         0.102030         0.110491
 C         2.173445         1.391227         0.485498
 C         3.375759         0.461855         0.988989
 C         4.014179        -0.591502        -0.026216
 C         3.520873        -0.369097        -1.387249
 O         2.089930        -0.258979        -1.331519
 O         3.175189        -1.732009         0.551016
 C         2.414957        -0.721294         1.231503
 H        -0.281143         0.323986        -0.897201
 H        -0.054828        -1.353135        -0.124190
 H        -0.487153        -0.082081         0.796291
 H         2.508989         2.045389        -0.337757
 H         1.822142         1.927749         1.418176
 H         4.093159         0.844020         1.688500
 H         5.101231        -0.659951         0.021364
 H         3.935380         0.561351        -1.859442
 H         3.855116        -1.301606        -2.030003
 H         1.999370        -1.119301         2.153988
