19
Iteration:  3328charge 0 multiplicity 1
 C         0.038776        -0.001357        -0.020173
 C         1.515803        -0.019346        -0.020876
 C         2.227315         1.294470         0.390050
 C         3.297938         0.466615         1.125996
 C         3.988117        -0.520960         0.002781
 C         3.473456        -0.277695        -1.402281
 O         2.055868        -0.521222        -1.325986
 O         3.410640        -1.673509         0.655823
 C         2.347006        -0.786370         1.155618
 H        -0.379992        -0.114932         1.051696
 H        -0.178749         0.991981        -0.417255
 H        -0.355361        -0.884455        -0.487973
 H         2.428711         1.829011        -0.533317
 H         1.554098         1.890628         1.034394
 H         3.890172         0.680805         1.965207
 H         5.103575        -0.552851         0.138223
 H         3.825863         0.713385        -1.746221
 H         3.803414        -1.046888        -2.137875
 H         1.649517        -1.180427         1.887964
