19
Iteration:  1422charge 0 multiplicity 1
 C         0.086244         0.012637        -0.122419
 C         1.543669        -0.018355        -0.057832
 C         2.136022         1.307091         0.514521
 C         3.342902         0.530903         1.132876
 C         4.044457        -0.456909         0.034657
 C         3.490431        -0.536531        -1.413638
 O         1.960453        -0.377840        -1.336769
 O         3.416262        -1.705597         0.639467
 C         2.359026        -0.815527         1.198936
 H        -0.381265         0.543523         0.728876
 H        -0.060129         0.516373        -1.016490
 H        -0.327275        -0.972276        -0.198159
 H         2.335315         1.914811        -0.332945
 H         1.471807         1.824894         1.312702
 H         3.880784         1.095056         1.837032
 H         5.095019        -0.374528         0.038685
 H         4.053578         0.275882        -1.957827
 H         3.572910        -1.488977        -1.991335
 H         1.763309        -1.201608         2.097974
