19
Iteration:  3102charge 0 multiplicity 1
 C        -0.035983        -0.154868        -0.006776
 C         1.530821         0.084925        -0.016712
 C         2.245396         1.325032         0.467508
 C         3.287486         0.453294         0.981060
 C         4.031360        -0.541074         0.032656
 C         3.549129        -0.353742        -1.365568
 O         2.043980        -0.371587        -1.368223
 O         3.337809        -1.720156         0.711065
 C         2.323110        -0.737651         1.092934
 H        -0.176205        -0.394499         1.049917
 H        -0.596971         0.721512        -0.354846
 H        -0.197859        -0.973942        -0.842307
 H         2.361512         1.988147        -0.390452
 H         1.794326         1.811080         1.306828
 H         3.964800         0.748202         1.764554
 H         5.070010        -0.517705         0.123763
 H         4.177934         0.500966        -1.850104
 H         3.823362        -1.295161        -1.793009
 H         1.953821        -0.950490         2.082355
