19
Iteration:   311charge 0 multiplicity 1
 C         0.028055        -0.181720        -0.160642
 C         1.514748        -0.007116         0.089542
 C         2.234917         1.428306         0.502937
 C         3.369036         0.430817         0.964895
 C         4.038601        -0.547060         0.024051
 C         3.461028        -0.324382        -1.354225
 O         1.998049        -0.420100        -1.238772
 O         3.352925        -1.709697         0.595902
 C         2.347725        -0.691126         1.168601
 H        -0.580905         0.478923         0.512735
 H        -0.105175         0.134285        -1.234128
 H        -0.260103        -1.294617        -0.265809
 H         2.434880         2.134133        -0.388811
 H         1.756257         1.894720         1.412670
 H         4.068341         0.864763         1.864997
 H         5.147669        -0.626177         0.076633
 H         3.800379         0.701988        -1.794611
 H         3.792324        -1.252991        -2.044350
 H         1.861963        -1.171834         2.134082
