19
Iteration:  1119
 C         0.004949        -0.108244        -0.061602
 C         1.554777        -0.010665        -0.007782
 C         2.258882         1.363716         0.352015
 C         3.316577         0.404525         1.097911
 C         4.047283        -0.542985         0.031001
 C         3.455937        -0.220599        -1.386131
 O         2.152520        -0.529031        -1.285797
 O         3.257225        -1.658457         0.625612
 C         2.325268        -0.744268         1.195417
 H        -0.423176         0.275205         0.807692
 H        -0.442467         0.444528        -0.938018
 H        -0.324011        -1.172087        -0.152134
 H         2.698552         1.983278        -0.377130
 H         1.537783         1.829589         1.101683
 H         3.962794         0.807101         1.848447
 H         5.194497        -0.764089         0.031795
 H         3.621904         0.932761        -1.544608
 H         3.749283        -1.016354        -2.109742
 H         1.770263        -0.943321         2.051031
