19
Iteration:  1707charge 0 multiplicity 1
 C        -0.041432        -0.062980        -0.060014
 C         1.503298        -0.028126        -0.115844
 C         2.267830         1.357955         0.387455
 C         3.350205         0.497793         1.018068
 C         4.020865        -0.531265         0.083620
 C         3.504570        -0.334637        -1.347644
 O         2.071046        -0.536558        -1.267222
 O         3.326423        -1.641659         0.689735
 C         2.380798        -0.773183         1.135707
 H        -0.433587        -0.049431         0.961311
 H        -0.568432         0.884865        -0.522211
 H        -0.446176        -0.908117        -0.651292
 H         2.707431         2.077749        -0.291290
 H         1.608398         1.808805         1.172040
 H         4.031167         0.777867         1.849874
 H         5.081563        -0.698324         0.110353
 H         3.806727         0.620660        -1.678437
 H         3.769442        -0.963226        -2.110368
 H         1.716094        -1.131640         1.990090
