19
Iteration:  2242
 C         0.019353        -0.189553        -0.020600
 C         1.564563        -0.036548        -0.035291
 C         2.325440         1.318250         0.370186
 C         3.350973         0.405166         1.061920
 C         3.993730        -0.530197         0.063984
 C         3.484841        -0.358378        -1.328770
 O         1.960776        -0.313653        -1.344435
 O         3.276521        -1.691682         0.667646
 C         2.423316        -0.682144         1.157590
 H        -0.427195        -0.321298         0.888387
 H        -0.313448         0.724097        -0.583732
 H        -0.358734        -0.900392        -0.766390
 H         2.585321         2.031523        -0.399221
 H         1.690904         2.039043         0.912769
 H         4.031341         0.762628         1.945336
 H         5.022772        -0.760404         0.207326
 H         3.830563         0.620475        -1.818213
 H         3.811662        -1.145259        -2.013283
 H         1.843705        -1.004571         2.035350
