19
Iteration:  4856
 C         0.040638         0.037540        -0.071824
 C         1.563409        -0.004543        -0.035373
 C         2.210435         1.260927         0.505584
 C         3.338704         0.415794         1.065036
 C         3.993287        -0.456419         0.010624
 C         3.448061        -0.358283        -1.411779
 O         2.014493        -0.476743        -1.244016
 O         3.414277        -1.663182         0.596148
 C         2.325959        -0.788485         1.123484
 H        -0.134048         0.898128        -0.615564
 H        -0.375443        -0.865129        -0.562418
 H        -0.434561        -0.076018         0.941901
 H         2.503579         2.027905        -0.252724
 H         1.598597         1.638701         1.342441
 H         4.077506         0.643262         1.944242
 H         5.109390        -0.379020         0.071216
 H         3.637550         0.675866        -1.834155
 H         3.921230        -1.158514        -1.998051
 H         1.654175        -1.367064         1.904616
