19
Iteration:  4838
 C         0.060462         0.092760        -0.115841
 C         1.496808        -0.100707         0.075935
 C         2.228104         1.290369         0.483892
 C         3.252803         0.489951         1.150793
 C         4.078297        -0.465596        -0.003986
 C         3.421882        -0.295073        -1.365157
 O         2.008329        -0.543743        -1.296713
 O         3.385857        -1.676078         0.499534
 C         2.462219        -0.859583         1.213623
 H        -0.263741         1.140252        -0.617079
 H        -0.512437        -0.568214        -0.845096
 H        -0.459860         0.045329         0.812837
 H         2.500546         1.897696        -0.345387
 H         1.571454         1.809294         1.159719
 H         3.735331         0.735330         2.032506
 H         5.153390        -0.536309        -0.036276
 H         3.766203         0.583155        -1.991253
 H         3.735148        -1.160290        -1.924951
 H         1.926628        -1.183160         2.045730
