19
Iteration:  1392
 C        -0.040470        -0.122394        -0.055207
 C         1.508398         0.031254        -0.095961
 C         2.303849         1.383123         0.433535
 C         3.326998         0.410128         1.020865
 C         4.028093        -0.505022         0.016084
 C         3.516216        -0.447032        -1.394895
 O         2.048200        -0.387391        -1.285060
 O         3.383699        -1.664959         0.737482
 C         2.282693        -0.766355         1.136103
 H        -0.347243        -0.178546         0.918067
 H        -0.490137         0.760458        -0.627995
 H        -0.388042        -1.050602        -0.498378
 H         2.562289         2.201243        -0.240036
 H         1.681116         1.923599         1.266203
 H         3.933085         0.751987         1.900375
 H         5.174578        -0.454100        -0.073947
 H         3.908447         0.616301        -1.785908
 H         3.703215        -1.391409        -2.049021
 H         1.708009        -1.067285         2.032414
