19
Iteration:  2206
 C         0.016803        -0.078282         0.072979
 C         1.538321         0.002672        -0.068242
 C         2.251694         1.350410         0.406751
 C         3.330027         0.426428         1.055590
 C         4.041339        -0.526263         0.048576
 C         3.594012        -0.340990        -1.388927
 O         2.037945        -0.473239        -1.276748
 O         3.282253        -1.644821         0.634830
 C         2.302280        -0.753874         1.046588
 H        -0.521670         0.011797         1.066780
 H        -0.323424         0.767510        -0.446596
 H        -0.307555        -1.022494        -0.413628
 H         2.601978         1.972004        -0.526709
 H         1.634451         1.760839         1.211558
 H         3.878591         0.557691         1.939074
 H         5.188622        -0.619484         0.138780
 H         3.850032         0.722149        -1.714786
 H         3.755862        -1.146883        -2.168806
 H         1.689605        -0.997125         1.909584
