19
Iteration:  2173
 C         0.023375         0.029193        -0.115809
 C         1.546129         0.039140        -0.011728
 C         2.179258         1.272807         0.457613
 C         3.358402         0.499462         1.076491
 C         3.994167        -0.506392         0.026150
 C         3.478225        -0.386619        -1.382516
 O         1.960985        -0.418940        -1.257455
 O         3.382550        -1.702421         0.618560
 C         2.422053        -0.873772         1.191549
 H        -0.562460         0.555296         0.683942
 H        -0.125129         0.319167        -1.081595
 H        -0.244697        -1.029142        -0.218417
 H         2.339143         2.162348        -0.305622
 H         1.564460         1.850745         1.140032
 H         4.074801         0.760264         1.765348
 H         5.147956        -0.469248         0.065684
 H         3.990605         0.484728        -1.881160
 H         3.818810        -1.189936        -2.078729
 H         1.940856        -1.310976         2.042303
