19
Iteration:  1488
 C         0.130068        -0.183344        -0.013438
 C         1.566019         0.019798        -0.039671
 C         2.310931         1.318369         0.393394
 C         3.299289         0.443758         1.107445
 C         3.985465        -0.501903         0.000557
 C         3.519384        -0.279164        -1.378092
 O         2.067325        -0.460199        -1.334559
 O         3.212686        -1.719805         0.652832
 C         2.259936        -0.628287         1.149368
 H        -0.243953         0.141209         1.013140
 H        -0.440473         0.298632        -0.813958
 H        -0.055468        -1.255187         0.035947
 H         2.598854         1.778667        -0.507001
 H         1.764762         2.095586         1.059418
 H         4.030328         0.511175         1.882749
 H         5.058213        -0.571756         0.071464
 H         3.727721         0.623667        -1.720177
 H         3.912697        -1.043283        -2.088612
 H         1.772055        -0.889842         2.143088
