19
Iteration:  3257
 C         0.105671        -0.178995        -0.116683
 C         1.553635         0.008981        -0.036769
 C         2.158968         1.292423         0.461472
 C         3.438054         0.451331         1.023379
 C         4.013258        -0.529205         0.037379
 C         3.421598        -0.355396        -1.397775
 O         1.988536        -0.291186        -1.348813
 O         3.277734        -1.769669         0.744247
 C         2.425236        -0.650727         1.158530
 H        -0.477776        -0.168594         0.786225
 H        -0.323456         0.664025        -0.877232
 H        -0.100716        -1.303016        -0.379746
 H         2.219713         2.104265        -0.298431
 H         1.637405         1.641134         1.350589
 H         4.068696         0.805176         1.937937
 H         5.065807        -0.729795        -0.019892
 H         3.924176         0.520201        -1.845099
 H         3.859826        -1.217230        -1.892887
 H         1.929032        -0.721479         2.162573
