19
Iteration:   185charge 0 multiplicity 1
 C         0.064902        -0.113327        -0.128756
 C         1.521595         0.011129         0.094189
 C         2.112259         1.386599         0.523318
 C         3.300531         0.499867         0.987769
 C         4.000221        -0.546597        -0.042175
 C         3.470183        -0.419200        -1.390790
 O         2.059550        -0.370111        -1.292915
 O         3.382831        -1.747889         0.673822
 C         2.419969        -0.718713         1.160180
 H        -0.555183        -0.253511         0.725754
 H        -0.364085         0.602313        -0.811468
 H         0.034314        -1.101374        -0.733202
 H         2.335856         2.094371        -0.314346
 H         1.587946         1.954827         1.427456
 H         4.025859         0.839477         1.715146
 H         5.119572        -0.674706        -0.030425
 H         3.963677         0.561187        -1.798637
 H         3.652020        -1.282682        -1.986503
 H         1.909370        -0.969092         2.076695
