19
Iteration:  4482charge 0 multiplicity 1
 C         0.011478        -0.212571        -0.126288
 C         1.533843         0.100657         0.056915
 C         2.251936         1.374261         0.544310
 C         3.428992         0.427252         1.038158
 C         4.024918        -0.566740        -0.018122
 C         3.477676        -0.339121        -1.454482
 O         1.985901        -0.386825        -1.260433
 O         3.320852        -1.688727         0.632183
 C         2.303829        -0.704844         1.114045
 H        -0.523485         0.488059        -0.817491
 H        -0.065599        -1.236905        -0.368584
 H        -0.312934        -0.248213         0.980045
 H         2.570906         2.061181        -0.187180
 H         1.853983         1.863066         1.367714
 H         4.061179         0.575835         1.864846
 H         5.103300        -0.645075         0.087221
 H         3.840619         0.687410        -1.793250
 H         3.748143        -1.064551        -2.155184
 H         1.881947        -1.135180         2.023914
