19
Iteration:  1840charge 0 multiplicity 1
 C         0.020874        -0.138908        -0.008070
 C         1.536920         0.062026        -0.032045
 C         2.268831         1.401546         0.374397
 C         3.307777         0.443702         1.076584
 C         3.987686        -0.535539         0.080474
 C         3.578058        -0.358213        -1.324009
 O         2.029470        -0.481945        -1.331762
 O         3.303807        -1.673151         0.627814
 C         2.339390        -0.732906         1.089190
 H        -0.258905         0.116549         0.994581
 H        -0.626664         0.422892        -0.839881
 H        -0.189811        -1.251874        -0.048736
 H         2.562962         2.045231        -0.442794
 H         1.505911         2.049858         0.991061
 H         4.046347         0.685558         1.876263
 H         5.072965        -0.730081         0.146448
 H         3.891002         0.687462        -1.693965
 H         3.932093        -1.123564        -2.000410
 H         1.719346        -1.042274         2.005811
