19
Iteration:  2621
 C         0.027834         0.002378        -0.120882
 C         1.509630        -0.033814         0.037430
 C         2.190009         1.301521         0.462864
 C         3.337413         0.508976         1.110171
 C         4.052611        -0.484985         0.059792
 C         3.519808        -0.399497        -1.378353
 O         2.005691        -0.449807        -1.313438
 O         3.319177        -1.709019         0.538535
 C         2.387658        -0.794625         1.225340
 H        -0.457164         0.429446         0.879361
 H        -0.033245         0.752360        -0.849943
 H        -0.284080        -1.111013        -0.334790
 H         2.348718         2.129937        -0.286537
 H         1.635903         1.839136         1.300038
 H         3.993315         1.138995         1.680859
 H         5.149910        -0.811576        -0.049348
 H         3.901409         0.507632        -1.781136
 H         3.844344        -1.211035        -2.176094
 H         1.863269        -1.247379         2.065915
