19
Iteration:  4770
 C         0.105313        -0.245187         0.017453
 C         1.561517         0.023916        -0.058891
 C         2.260125         1.365224         0.472393
 C         3.339031         0.443047         1.032922
 C         3.953244        -0.546231         0.047158
 C         3.511095        -0.384211        -1.320676
 O         2.063800        -0.220317        -1.354920
 O         3.199708        -1.717220         0.524156
 C         2.369769        -0.736557         1.184164
 H        -0.634717         0.101251        -0.771251
 H        -0.034524        -1.399128        -0.065782
 H        -0.216403         0.219893         1.042694
 H         2.624218         2.162116        -0.170143
 H         1.793467         1.752919         1.374131
 H         3.875061         0.995044         1.842698
 H         5.048119        -0.736811         0.043749
 H         3.887331         0.529582        -1.879165
 H         3.797228        -1.266148        -1.836725
 H         1.901299        -1.310471         2.015044
