19
Iteration:  4421
 C        -0.015619        -0.102028         0.016851
 C         1.486417         0.006666        -0.059157
 C         2.253793         1.418058         0.457869
 C         3.368103         0.450069         1.082799
 C         4.062362        -0.473394         0.055757
 C         3.491888        -0.398916        -1.326672
 O         1.996341        -0.441538        -1.322562
 O         3.375138        -1.691928         0.559617
 C         2.355020        -0.771392         1.037166
 H        -0.553007         0.842991        -0.112855
 H        -0.429157        -0.893768        -0.697472
 H        -0.232552        -0.453095         1.058805
 H         2.720049         2.369040         0.019683
 H         1.535434         1.656722         1.352589
 H         3.956353         0.701054         2.039833
 H         5.172251        -0.557175        -0.031398
 H         3.832032         0.540986        -1.737526
 H         3.781654        -1.359498        -1.935226
 H         1.713486        -1.180165         1.872007
