19
Iteration:   272charge 0 multiplicity 1
 C        -0.039030        -0.069043        -0.041727
 C         1.506331        -0.052605        -0.039409
 C         2.176341         1.358877         0.492686
 C         3.356173         0.462301         1.072674
 C         4.034912        -0.478314         0.097788
 C         3.488517        -0.416458        -1.367433
 O         1.988699        -0.386148        -1.434209
 O         3.435358        -1.681603         0.620199
 C         2.406547        -0.787686         1.182296
 H        -0.382401         0.642450         0.661305
 H        -0.306884         0.340809        -1.011766
 H        -0.564328        -1.062319        -0.170684
 H         2.443553         2.140193        -0.215391
 H         1.643286         1.686395         1.497585
 H         4.088761         0.727794         1.750803
 H         5.142861        -0.503167         0.158415
 H         3.854870         0.442824        -1.847003
 H         3.764236        -1.355583        -1.759755
 H         1.838008        -1.100901         1.999466
