19
Iteration:  3718
 C         0.096788        -0.257008        -0.111261
 C         1.553149         0.118744         0.008412
 C         2.222744         1.424806         0.416278
 C         3.370775         0.406478         0.971903
 C         4.016004        -0.588705         0.010078
 C         3.464347        -0.384587        -1.356885
 O         2.035659        -0.354659        -1.221352
 O         3.242101        -1.689314         0.694108
 C         2.357600        -0.685802         1.107907
 H        -0.193282        -0.474523         0.997964
 H        -0.657934         0.528642        -0.610572
 H         0.094013        -1.205829        -0.604157
 H         2.449898         2.241060        -0.357851
 H         1.789821         1.941218         1.427153
 H         4.218830         0.745886         1.646683
 H         5.134675        -0.749613         0.076162
 H         3.790324         0.383433        -1.988103
 H         3.612703        -1.333431        -2.018751
 H         1.798481        -0.696644         2.118414
