19
Iteration:  3325charge 0 multiplicity 1
 C         0.023396        -0.028496        -0.010483
 C         1.533736        -0.012844        -0.031736
 C         2.230204         1.291546         0.380131
 C         3.312288         0.495661         1.111728
 C         3.939130        -0.527684         0.041669
 C         3.503669        -0.285581        -1.375301
 O         2.045193        -0.504232        -1.329131
 O         3.416101        -1.680494         0.622340
 C         2.347066        -0.797412         1.171666
 H        -0.344656        -0.161941         1.081947
 H        -0.218005         1.091792        -0.424671
 H        -0.333034        -0.869221        -0.563202
 H         2.495944         1.831190        -0.503669
 H         1.622257         1.936181         0.987067
 H         3.904187         0.802564         2.008431
 H         4.975498        -0.628034         0.086495
 H         3.734227         0.641278        -1.867514
 H         3.872143        -1.011628        -2.104707
 H         1.702589        -1.224433         1.962119
