19
Iteration:   522charge 0 multiplicity 1
 C         0.016047        -0.073975        -0.137927
 C         1.528815        -0.032859         0.017089
 C         2.185297         1.345456         0.475270
 C         3.356722         0.458476         0.993428
 C         3.997643        -0.495140         0.070885
 C         3.418691        -0.312465        -1.321074
 O         2.047154        -0.410578        -1.272171
 O         3.405525        -1.736527         0.610720
 C         2.389915        -0.780821         1.125232
 H        -0.441162         0.015674         0.861295
 H        -0.328219         0.818485        -0.668792
 H        -0.341139        -0.925985        -0.707583
 H         2.335673         2.066670        -0.338745
 H         1.675530         1.743332         1.287235
 H         4.004791         0.838439         1.725085
 H         5.038746        -0.591816         0.119754
 H         3.854757         0.523600        -1.743629
 H         3.794426        -1.240483        -1.863082
 H         1.911120        -1.121341         2.042872
