19
Iteration:  1077
 C        -0.002823        -0.215629         0.039160
 C         1.489454         0.058558        -0.079426
 C         2.232786         1.384657         0.402437
 C         3.276038         0.493198         1.071361
 C         4.053391        -0.584335         0.091820
 C         3.497174        -0.422453        -1.372582
 O         2.130822        -0.303243        -1.313044
 O         3.365386        -1.723444         0.634348
 C         2.275713        -0.686881         1.070841
 H        -0.335965         0.283183         0.961018
 H        -0.603557         0.233906        -0.730050
 H        -0.052277        -1.303406        -0.089390
 H         2.627290         1.958561        -0.510499
 H         1.613393         1.972636         1.154968
 H         3.848131         0.819665         1.981251
 H         5.197476        -0.634257         0.154524
 H         3.957447         0.427593        -1.910928
 H         3.694024        -1.405909        -1.880711
 H         1.718376        -1.165003         1.849512
