19
Iteration:  4990
 C        -0.007842         0.093342        -0.034748
 C         1.492374        -0.094262        -0.029942
 C         2.217682         1.220753         0.357207
 C         3.283500         0.378826         1.116722
 C         4.129137        -0.432453         0.064671
 C         3.490759        -0.308520        -1.347055
 O         1.965769        -0.446451        -1.282516
 O         3.438379        -1.674242         0.616552
 C         2.376451        -0.849116         1.082480
 H        -0.269473         1.113100        -0.417095
 H        -0.509369        -0.820943        -0.490692
 H        -0.467530         0.127788         0.912777
 H         2.371963         1.973658        -0.413195
 H         1.672589         1.714595         1.165827
 H         3.950945         0.774736         1.869532
 H         5.212224        -0.305622         0.033965
 H         3.571784         0.675063        -1.836796
 H         3.822546        -1.148085        -1.886925
 H         1.859490        -1.204134         2.010336
