19
Iteration:   745charge 0 multiplicity 1
 C         0.099793        -0.134530         0.041069
 C         1.546394         0.054313        -0.074530
 C         2.222282         1.347789         0.310749
 C         3.258598         0.443293         1.070924
 C         4.042509        -0.500408         0.066701
 C         3.533699        -0.395295        -1.307722
 O         2.067076        -0.398340        -1.310194
 O         3.295223        -1.682541         0.613558
 C         2.286467        -0.766670         1.092827
 H        -0.100357        -0.014598         1.127763
 H        -0.643687         0.331016        -0.662009
 H        -0.106490        -1.251058         0.118620
 H         2.454003         1.968836        -0.498118
 H         1.681469         2.024004         1.023186
 H         3.887063         0.841952         1.942308
 H         5.214167        -0.575129         0.142423
 H         3.786866         0.745027        -1.567033
 H         3.967885        -1.225498        -1.967163
 H         1.646996        -1.052061         1.885630
