19
Iteration:  2955charge 0 multiplicity 1
 C         0.080224        -0.215616        -0.048215
 C         1.524827         0.057801        -0.060978
 C         2.299229         1.343485         0.468750
 C         3.314804         0.447185         1.071898
 C         4.039451        -0.542658         0.043805
 C         3.433326        -0.351943        -1.418191
 O         2.084165        -0.399031        -1.322938
 O         3.243117        -1.651710         0.570005
 C         2.331725        -0.747190         1.210012
 H        -0.141386        -0.002032         1.030640
 H        -0.570969         0.612194        -0.549803
 H        -0.196509        -1.195296        -0.403908
 H         2.603422         1.992405        -0.363455
 H         1.648791         1.845572         1.259948
 H         4.010021         0.891377         1.818413
 H         5.148108        -0.583220         0.363233
 H         3.869411         0.730797        -1.593817
 H         3.881583        -1.180620        -1.970104
 H         1.687982        -1.112792         2.048964
