19
Iteration:  3462charge 0 multiplicity 1
 C        -0.026031        -0.049402        -0.049827
 C         1.494520        -0.015397        -0.021772
 C         2.230536         1.360600         0.400477
 C         3.323513         0.469153         1.129028
 C         4.102324        -0.537115         0.094804
 C         3.467868        -0.373175        -1.377263
 O         2.019696        -0.423122        -1.259802
 O         3.384670        -1.721721         0.507493
 C         2.377663        -0.741192         1.180590
 H        -0.461571        -0.078128         0.956523
 H        -0.479312         0.737888        -0.621985
 H        -0.374986        -1.053542        -0.725236
 H         2.582370         2.051328        -0.455807
 H         1.626668         2.019425         1.080824
 H         3.834513         0.877320         2.039313
 H         5.264437        -0.841041         0.225861
 H         3.635526         0.545796        -1.969344
 H         3.932645        -1.164016        -2.044554
 H         1.790446        -1.061570         2.084604
