19
Iteration:  3262
 C         0.098894        -0.218593        -0.110691
 C         1.577380         0.054439        -0.057078
 C         2.159380         1.316901         0.463704
 C         3.426628         0.471145         1.002889
 C         3.992856        -0.523353         0.029858
 C         3.457630        -0.394158        -1.405715
 O         1.991134        -0.291244        -1.358044
 O         3.259866        -1.785112         0.740881
 C         2.444812        -0.656394         1.215539
 H        -0.508051        -0.151938         0.849379
 H        -0.327591         0.530484        -0.683717
 H        -0.158795        -1.120946        -0.570338
 H         2.274062         2.142787        -0.228273
 H         1.699835         1.656952         1.412185
 H         3.921242         0.739533         1.872585
 H         5.107496        -0.644180        -0.073401
 H         3.759013         0.626753        -1.745209
 H         3.911259        -1.260162        -1.944453
 H         1.876154        -0.816431         2.128319
