19
Iteration:  3028
 C        -0.017403        -0.025581        -0.125760
 C         1.523027        -0.020792         0.031352
 C         2.163988         1.354680         0.531532
 C         3.331381         0.498744         1.112284
 C         4.106925        -0.560330         0.009824
 C         3.486177        -0.365749        -1.395923
 O         1.994289        -0.468211        -1.298494
 O         3.389483        -1.690127         0.594875
 C         2.369560        -0.738842         1.095710
 H        -0.504669         0.599443         0.538202
 H        -0.340903         0.149675        -1.222634
 H        -0.184182        -1.059759         0.115140
 H         2.520740         2.059990        -0.233743
 H         1.834318         1.885200         1.400044
 H         3.846948         0.640195         2.106417
 H         5.164171        -0.833311        -0.020568
 H         3.669532         0.632689        -1.632412
 H         3.941673        -1.090402        -2.105587
 H         1.810295        -1.077519         2.008521
