19
Iteration:  2402charge 0 multiplicity 1
 C        -0.066955        -0.125103        -0.148063
 C         1.466749         0.053896         0.018743
 C         2.289051         1.304950         0.382493
 C         3.384628         0.388636         1.005949
 C         4.009214        -0.517991         0.015296
 C         3.467867        -0.395768        -1.376237
 O         2.029486        -0.308495        -1.269009
 O         3.373762        -1.689597         0.722296
 C         2.402716        -0.727339         1.161511
 H        -0.436177        -0.258752         0.969417
 H        -0.696957         0.517530        -0.734104
 H        -0.320307        -1.044550        -0.775673
 H         2.427990         2.125392        -0.304444
 H         1.886563         1.874066         1.234193
 H         3.957530         0.591851         1.852996
 H         5.159248        -0.574485         0.121387
 H         4.080676         0.513180        -1.751748
 H         3.613911        -1.426870        -1.856128
 H         1.900048        -1.038118         2.082057
