19
Iteration:  3656
 C         0.058216         0.051666        -0.004205
 C         1.542967        -0.031816        -0.053850
 C         2.282776         1.359482         0.402003
 C         3.232365         0.447734         1.122835
 C         4.071756        -0.482971         0.083408
 C         3.411245        -0.375636        -1.378103
 O         1.980296        -0.585677        -1.290826
 O         3.456728        -1.624794         0.642319
 C         2.316854        -0.764421         1.030782
 H        -0.480869        -0.154333         0.911194
 H        -0.233719         0.969913        -0.441363
 H        -0.412297        -0.738717        -0.675306
 H         2.581683         2.043755        -0.387870
 H         1.520934         1.651952         1.092830
 H         3.920594         0.628035         1.927603
 H         5.153611        -0.550765         0.123553
 H         3.710030         0.713090        -1.793952
 H         3.846014        -1.272034        -1.877482
 H         1.872367        -1.294863         1.868446
