19
Iteration:  1009charge 0 multiplicity 1
 C        -0.054276        -0.041290        -0.106651
 C         1.496879        -0.024320         0.022598
 C         2.236886         1.321718         0.451782
 C         3.329126         0.436650         1.036710
 C         4.019514        -0.470383         0.054324
 C         3.477884        -0.339244        -1.408745
 O         2.109600        -0.597074        -1.280726
 O         3.392950        -1.662115         0.608549
 C         2.326322        -0.694492         1.189294
 H        -0.532162         0.101181         0.776749
 H        -0.428640         0.909883        -0.621770
 H        -0.399922        -0.857085        -0.733247
 H         2.518202         2.056326        -0.279893
 H         1.840247         1.839363         1.441283
 H         3.789739         0.817797         1.866279
 H         5.184430        -0.578709         0.076772
 H         3.695195         0.638177        -1.909184
 H         3.940305        -1.176924        -1.996973
 H         1.829943        -0.797185         2.069143
