19
Iteration:  2516
 C         0.006323        -0.182501        -0.089665
 C         1.478121         0.093460        -0.033010
 C         2.207163         1.370362         0.526474
 C         3.321765         0.494998         1.113445
 C         4.102699        -0.659765        -0.040981
 C         3.489990        -0.445898        -1.381670
 O         2.063383        -0.329688        -1.336853
 O         3.295402        -1.707968         0.653196
 C         2.417627        -0.633599         1.183979
 H        -0.407260         0.320893         0.745738
 H        -0.425649         0.191394        -1.192362
 H        -0.127801        -1.248999        -0.172270
 H         2.556440         2.153012        -0.221244
 H         1.512771         1.804477         1.326821
 H         4.090801         0.635661         1.963428
 H         5.163944        -0.769701        -0.147335
 H         3.758129         0.548135        -1.826009
 H         3.575871        -1.280739        -2.009439
 H         1.741940        -1.111497         1.936221
