19
Iteration:  2822charge 0 multiplicity 1
 C         0.093882        -0.231277         0.002637
 C         1.557729         0.083021        -0.054349
 C         2.266248         1.331281         0.364436
 C         3.370381         0.436237         1.101133
 C         3.993874        -0.599688         0.059621
 C         3.477388        -0.273997        -1.339712
 O         2.045616        -0.308606        -1.350249
 O         3.222812        -1.733244         0.622195
 C         2.316996        -0.736544         1.160366
 H        -0.210074         0.060501         0.910005
 H        -0.389203         0.002481        -1.013145
 H         0.165905        -1.237698        -0.175997
 H         2.525266         2.152494        -0.320219
 H         1.825182         1.819845         1.245541
 H         4.040189         0.926733         1.831649
 H         5.115122        -0.893679         0.125094
 H         3.707370         0.773229        -1.594926
 H         3.727830        -0.955793        -2.171448
 H         1.736562        -1.005005         2.086266
