19
Iteration:  1265charge 0 multiplicity 1
 C        -0.026819        -0.083260        -0.109792
 C         1.483641         0.053025        -0.012252
 C         2.261177         1.357230         0.471586
 C         3.361290         0.467258         1.015237
 C         4.042107        -0.497234         0.044561
 C         3.499423        -0.433278        -1.323323
 O         2.027213        -0.448462        -1.285567
 O         3.360472        -1.667598         0.647748
 C         2.358929        -0.760429         1.082902
 H        -0.541315         0.597399         0.636849
 H        -0.501602         0.134442        -0.994047
 H        -0.198254        -1.143210         0.004308
 H         2.336894         2.286117        -0.199754
 H         1.693213         1.605275         1.347589
 H         4.006512         0.762233         1.936146
 H         5.113695        -0.709240         0.134684
 H         3.905208         0.521680        -1.917662
 H         3.863645        -1.246780        -1.936981
 H         1.826021        -1.110264         1.971435
