19
Iteration:  4992charge 0 multiplicity 1
 C        -0.012748         0.088040        -0.034396
 C         1.492750        -0.079919        -0.051089
 C         2.222073         1.217869         0.365382
 C         3.278661         0.379517         1.121032
 C         4.115125        -0.435448         0.062977
 C         3.505936        -0.313773        -1.350508
 O         1.969791        -0.451099        -1.276412
 O         3.448810        -1.675063         0.609454
 C         2.358573        -0.835979         1.089140
 H        -0.265310         1.177106        -0.424667
 H        -0.454082        -0.819099        -0.443701
 H        -0.492370         0.063223         0.965401
 H         2.415779         1.953030        -0.388950
 H         1.675483         1.696374         1.173451
 H         3.922640         0.762528         1.874606
 H         5.210503        -0.325761         0.024552
 H         3.478801         0.691947        -1.850164
 H         3.826945        -1.176819        -1.904284
 H         1.925805        -1.175421         2.018254
