19
Iteration:  4056charge 0 multiplicity 1
 C         0.038289        -0.072466        -0.112051
 C         1.568909        -0.035648         0.033234
 C         2.269447         1.259749         0.432319
 C         3.362196         0.472897         1.089298
 C         4.006380        -0.513108         0.065889
 C         3.398090        -0.315889        -1.370162
 O         2.019827        -0.462872        -1.243738
 O         3.332720        -1.638073         0.529859
 C         2.396091        -0.743233         1.174597
 H        -0.429825         0.904167        -0.447560
 H        -0.120682        -0.834683        -0.908871
 H        -0.525534        -0.447474         0.726429
 H         2.520288         1.959603        -0.399518
 H         1.681311         1.729068         1.228740
 H         3.994602         0.718346         2.025469
 H         5.117799        -0.503815         0.093354
 H         3.610777         0.780131        -1.764796
 H         3.659309        -1.067555        -2.119141
 H         1.842914        -1.172220         2.037451
