19
Iteration:  4311charge 0 multiplicity 1
 C         0.016677        -0.283955         0.023759
 C         1.499383         0.094481        -0.038992
 C         2.259053         1.369280         0.414260
 C         3.398004         0.449472         1.065500
 C         4.029527        -0.550205         0.113771
 C         3.473961        -0.370435        -1.339103
 O         2.032359        -0.186536        -1.330358
 O         3.290811        -1.744838         0.542110
 C         2.386367        -0.790237         1.117161
 H        -0.454691        -0.009908        -0.875931
 H        -0.061661        -1.336404         0.334656
 H        -0.569608         0.313323         0.802476
 H         2.646164         2.100809        -0.345558
 H         1.512992         1.857985         1.122536
 H         3.970353         0.792888         1.942744
 H         5.121364        -0.564500         0.195115
 H         3.955335         0.334012        -1.960182
 H         3.575491        -1.293467        -2.049790
 H         1.840668        -1.225268         1.970788
