19
Iteration:  3856
 C        -0.013441        -0.171013         0.009687
 C         1.512678        -0.003231        -0.036891
 C         2.256679         1.311984         0.490962
 C         3.381263         0.415592         0.955333
 C         4.026037        -0.586472         0.050627
 C         3.507906        -0.398300        -1.358100
 O         2.070626        -0.216349        -1.373191
 O         3.322757        -1.648888         0.654689
 C         2.314113        -0.783943         1.140676
 H        -0.549068         0.607713        -0.599765
 H        -0.289893        -1.173283        -0.461959
 H        -0.500587        -0.250991         1.083639
 H         2.188164         2.099844        -0.303483
 H         1.817662         1.809023         1.360625
 H         4.069294         1.039942         1.664212
 H         5.128878        -0.756776         0.226783
 H         3.946322         0.483136        -1.819210
 H         3.628618        -1.236909        -2.005691
 H         1.908827        -1.107857         2.124634
