19
Iteration:  3087
 C        -0.013198        -0.093266        -0.011542
 C         1.499998        -0.035708        -0.061458
 C         2.194374         1.359295         0.339117
 C         3.310476         0.435927         1.074420
 C         4.032332        -0.533131         0.042926
 C         3.489484        -0.366381        -1.386540
 O         2.121082        -0.351376        -1.289705
 O         3.358205        -1.707545         0.669020
 C         2.366287        -0.774428         1.162785
 H        -0.427568        -0.257078         1.060493
 H        -0.558063         0.761354        -0.416379
 H        -0.506484        -0.936824        -0.499002
 H         2.629357         2.097633        -0.392152
 H         1.631490         2.013336         1.118134
 H         4.007903         0.725601         1.881980
 H         5.194022        -0.721824         0.108727
 H         3.742706         0.567881        -1.748737
 H         3.860441        -0.983918        -2.214106
 H         1.667754        -1.152756         1.921392
