19
Iteration:  2014charge 0 multiplicity 1
 C         0.009980         0.010944        -0.083814
 C         1.502106         0.011097         0.003221
 C         2.189041         1.339452         0.478685
 C         3.319676         0.441473         1.072810
 C         4.129069        -0.508587         0.016497
 C         3.550270        -0.315942        -1.375616
 O         1.942126        -0.522169        -1.259414
 O         3.394957        -1.702833         0.604982
 C         2.357588        -0.774069         1.100404
 H        -0.485249         0.292177         0.784684
 H        -0.330361         0.808932        -0.887037
 H        -0.292475        -1.024405        -0.349851
 H         2.480745         2.074361        -0.237873
 H         1.462940         1.636499         1.355195
 H         4.011164         0.784736         1.939919
 H         5.157060        -0.715029         0.173688
 H         3.778495         0.545045        -2.088100
 H         3.839412        -1.152589        -2.012964
 H         1.756271        -1.026974         2.053014
