19
Iteration:   464
 C         0.058534        -0.151540         0.036339
 C         1.546922         0.040294        -0.035755
 C         2.240560         1.321321         0.361034
 C         3.236925         0.410838         1.080575
 C         4.076311        -0.534000         0.075195
 C         3.498161        -0.287203        -1.325685
 O         2.042693        -0.378405        -1.356530
 O         3.282734        -1.724046         0.597155
 C         2.373598        -0.765502         1.091341
 H        -0.393486         0.191847         0.929116
 H        -0.459423         0.283978        -0.815656
 H        -0.112185        -1.234857         0.192396
 H         2.650758         2.088105        -0.377367
 H         1.592442         2.047919         0.913572
 H         3.897834         0.797103         1.960048
 H         5.154219        -0.638344         0.357014
 H         3.830171         0.733499        -1.668705
 H         3.888491        -0.915217        -2.046449
 H         1.832605        -1.048953         2.108185
