19
Iteration:  4467
 C         0.071721        -0.244092        -0.020144
 C         1.563707         0.017904        -0.004367
 C         2.273103         1.337133         0.449065
 C         3.376294         0.484025         1.027772
 C         4.011069        -0.603766         0.024665
 C         3.406528        -0.315983        -1.346864
 O         2.015918        -0.236123        -1.350970
 O         3.256787        -1.742180         0.642357
 C         2.444126        -0.731837         1.177012
 H        -0.456993         0.614405        -0.576510
 H        -0.114859        -1.078820        -0.791316
 H        -0.493131        -0.455401         0.838661
 H         2.336885         2.060615        -0.420790
 H         1.669809         1.758835         1.353208
 H         4.066148         0.967024         1.773754
 H         5.113637        -0.808535        -0.042771
 H         3.777926         0.596834        -1.736018
 H         3.630281        -1.253686        -2.020961
 H         1.811829        -0.984569         2.081978
