19
Iteration:  3151
 C        -0.005796        -0.160755        -0.087586
 C         1.523162         0.017168         0.049385
 C         2.252273         1.382002         0.439738
 C         3.346391         0.423233         0.957642
 C         4.075661        -0.540082         0.084008
 C         3.491558        -0.409988        -1.391790
 O         1.996523        -0.352205        -1.306992
 O         3.323837        -1.665883         0.613714
 C         2.353752        -0.727548         1.221049
 H        -0.515307        -0.120154         0.872686
 H        -0.277975         0.570558        -0.888675
 H         0.030503        -1.024449        -0.630033
 H         2.392059         2.046937        -0.424591
 H         1.670823         1.855485         1.260090
 H         3.811186         0.772332         1.909366
 H         5.205953        -0.605884         0.257648
 H         3.849025         0.600120        -1.832279
 H         3.874797        -1.337025        -1.999875
 H         1.849419        -1.194035         2.104913
