19
Iteration:  4875charge 0 multiplicity 1
 C        -0.018981        -0.099191        -0.038522
 C         1.504611         0.047209        -0.086978
 C         2.218886         1.398075         0.477246
 C         3.325969         0.394296         1.103133
 C         4.065905        -0.552277         0.057112
 C         3.439279        -0.322157        -1.342983
 O         2.017787        -0.381253        -1.373721
 O         3.367174        -1.748098         0.632837
 C         2.422156        -0.786208         1.083348
 H        -0.559273         0.634131        -0.662222
 H        -0.198132        -1.133576        -0.225076
 H        -0.317703         0.076509         1.048321
 H         2.478799         2.284864        -0.210277
 H         1.688714         1.836355         1.383736
 H         3.895466         0.947445         1.912327
 H         5.142855        -0.835513         0.016197
 H         3.804466         0.605794        -1.676766
 H         3.736317        -1.163414        -2.082713
 H         2.137035        -1.063181         2.120772
