19
Iteration:  4968charge 0 multiplicity 1
 C         0.018597         0.023335        -0.066181
 C         1.524154        -0.057940         0.000515
 C         2.161418         1.284140         0.464053
 C         3.297470         0.506303         1.083178
 C         3.955626        -0.560003         0.022551
 C         3.466772        -0.320990        -1.371271
 O         2.037561        -0.395132        -1.317372
 O         3.455658        -1.742349         0.596018
 C         2.411133        -0.837267         1.173563
 H        -0.091566         0.915332        -0.781372
 H        -0.414582        -0.980157        -0.320462
 H        -0.457154         0.334871         0.808293
 H         2.443567         1.908299        -0.389338
 H         1.607013         1.926361         1.144937
 H         3.968210         0.892751         1.863614
 H         5.048618        -0.584072        -0.073916
 H         3.592701         0.703740        -1.717133
 H         3.842048        -1.074097        -2.005444
 H         2.012800        -1.222030         2.141027
