19
Iteration:  4301
 C        -0.020870        -0.271881        -0.003466
 C         1.468362         0.011733         0.007046
 C         2.287173         1.373632         0.453013
 C         3.337918         0.465766         1.020832
 C         4.068513        -0.603938         0.051126
 C         3.476596        -0.343193        -1.313127
 O         2.038278        -0.207407        -1.308444
 O         3.339450        -1.723241         0.564255
 C         2.332568        -0.727217         1.071535
 H        -0.503526         0.028940        -0.909653
 H        -0.187195        -1.378204         0.015385
 H        -0.382569         0.259427         0.894022
 H         2.581182         2.032050        -0.368022
 H         1.946538         2.024100         1.307965
 H         4.057020         0.850178         1.782531
 H         5.130269        -0.907309         0.137876
 H         3.861016         0.591942        -1.679107
 H         3.724809        -1.318218        -1.903873
 H         1.785914        -1.064075         1.987289
