19
Iteration:  3593charge 0 multiplicity 1
 C        -0.030197        -0.216113        -0.059589
 C         1.509701         0.040812        -0.026123
 C         2.255332         1.400660         0.474620
 C         3.386825         0.491048         0.981356
 C         4.012616        -0.623246         0.020361
 C         3.489047        -0.326591        -1.326182
 O         2.083861        -0.334232        -1.298638
 O         3.282441        -1.760784         0.650084
 C         2.396320        -0.697092         1.108073
 H        -0.518431         0.458377         0.581801
 H        -0.375622        -0.098063        -1.036487
 H        -0.201021        -1.328494         0.263967
 H         2.419762         2.160257        -0.304984
 H         1.615593         1.827205         1.224492
 H         3.998891         0.832283         1.828459
 H         5.104515        -0.675248         0.086825
 H         3.768883         0.648112        -1.580748
 H         3.621374        -1.092586        -2.025232
 H         1.934119        -0.965078         2.072002
