19
Iteration:  3591charge 0 multiplicity 1
 C        -0.033639        -0.227921        -0.053262
 C         1.526437         0.038039        -0.043760
 C         2.263340         1.404687         0.466991
 C         3.397998         0.496532         0.980706
 C         3.993758        -0.627689         0.019606
 C         3.501139        -0.318890        -1.331646
 O         2.082479        -0.327403        -1.296945
 O         3.272127        -1.748095         0.650384
 C         2.390970        -0.715876         1.119789
 H        -0.584531         0.430751         0.631801
 H        -0.409062        -0.132441        -1.036569
 H        -0.161223        -1.298053         0.292758
 H         2.515584         2.165311        -0.278999
 H         1.580944         1.747535         1.212054
 H         3.989331         0.792523         1.861779
 H         5.083753        -0.638348         0.066329
 H         3.776458         0.741104        -1.600784
 H         3.612370        -1.195645        -2.001197
 H         1.907483        -0.910350         2.099219
