19
Iteration:  4389
 C         0.062826         0.050276        -0.102310
 C         1.511603        -0.124672         0.119703
 C         2.244497         1.277742         0.391242
 C         3.323616         0.437442         1.128728
 C         3.995381        -0.445627        -0.042765
 C         3.442176        -0.235212        -1.416865
 O         2.010029        -0.494754        -1.234231
 O         3.377942        -1.675747         0.583879
 C         2.422108        -0.863942         1.192315
 H        -0.046395         0.842380        -0.885855
 H        -0.493924        -0.916647        -0.499041
 H        -0.580171         0.123468         0.791442
 H         2.497174         2.132897        -0.363894
 H         1.562460         1.847193         1.186739
 H         4.122913         0.862251         1.883884
 H         5.109859        -0.678952        -0.051765
 H         3.552695         0.771024        -1.720856
 H         3.771731        -0.985225        -2.335200
 H         1.735532        -1.349526         1.970992
