19
Iteration:  1930
 C         0.101236        -0.147601        -0.155609
 C         1.548785         0.053290         0.065495
 C         2.232288         1.351357         0.464071
 C         3.345530         0.495373         1.031540
 C         4.027413        -0.498350         0.042183
 C         3.455617        -0.397273        -1.436028
 O         2.015329        -0.405716        -1.367581
 O         3.281579        -1.735573         0.632208
 C         2.397225        -0.734813         1.238696
 H        -0.454118         0.091046         0.857286
 H        -0.327242         0.567430        -0.920026
 H        -0.089917        -1.205691        -0.382243
 H         2.351123         2.250238        -0.177835
 H         1.655123         1.705383         1.376648
 H         3.950287         0.882506         1.827647
 H         5.068363        -0.698486         0.473503
 H         3.694643         0.613328        -1.749897
 H         3.562992        -1.365092        -1.997869
 H         2.004351        -0.965025         2.253527
