19
Iteration:  1873charge 0 multiplicity 1
 C         0.051003         0.009127        -0.007738
 C         1.550365        -0.075433        -0.067916
 C         2.206523         1.292814         0.348108
 C         3.293767         0.501846         1.140958
 C         3.982588        -0.497214         0.086429
 C         3.514444        -0.331588        -1.350132
 O         2.024320        -0.533314        -1.351493
 O         3.372718        -1.646131         0.622931
 C         2.360185        -0.766305         1.126662
 H        -0.193905         0.084284         1.025431
 H        -0.311020         1.024330        -0.443829
 H        -0.548454        -0.817462        -0.446814
 H         2.518704         1.872824        -0.503564
 H         1.409971         1.867967         0.986139
 H         3.984554         0.734571         1.973520
 H         5.046718        -0.689036         0.232874
 H         3.992937         0.601507        -1.698467
 H         3.979391        -1.098279        -1.943064
 H         1.725381        -1.233612         1.960327
