19
Iteration:  1651charge 0 multiplicity 1
 C        -0.025027        -0.163928        -0.109531
 C         1.483162         0.032977        -0.041797
 C         2.231725         1.361019         0.462201
 C         3.349017         0.491894         1.058279
 C         4.066809        -0.534970         0.034372
 C         3.502052        -0.464609        -1.414110
 O         2.045506        -0.284611        -1.359272
 O         3.356064        -1.721515         0.709975
 C         2.355188        -0.720897         1.201557
 H        -0.660466         0.166187         0.764210
 H        -0.393036         0.216339        -1.093637
 H        -0.212619        -1.239681        -0.065769
 H         2.500490         2.081227        -0.298311
 H         1.794320         1.975726         1.252606
 H         3.840321         0.668438         1.999269
 H         5.108347        -0.738802        -0.084129
 H         4.032040         0.303549        -1.937197
 H         3.646625        -1.407877        -1.802345
 H         1.828068        -0.859094         2.167290
