19
Iteration:  3770charge 0 multiplicity 1
 C        -0.009813         0.013197         0.015364
 C         1.516779        -0.005529         0.002289
 C         2.205362         1.337751         0.345650
 C         3.256843         0.477380         1.014494
 C         4.041494        -0.534858         0.027588
 C         3.560189        -0.394220        -1.312831
 O         2.030581        -0.415979        -1.278081
 O         3.420464        -1.720651         0.627080
 C         2.324661        -0.843046         1.111877
 H        -0.495644         0.844423         0.584214
 H        -0.368316         0.008924        -1.056488
 H        -0.299691        -0.863417         0.497030
 H         2.382969         1.915751        -0.530759
 H         1.665944         1.739958         1.141822
 H         3.921760         0.935457         1.854912
 H         5.172920        -0.454197         0.041535
 H         3.786589         0.651724        -1.835370
 H         3.764507        -1.116419        -2.090664
 H         1.970978        -1.010796         2.162412
