19
Iteration:   266charge 0 multiplicity 1
 C        -0.036318        -0.065241         0.022967
 C         1.516568        -0.002592        -0.048073
 C         2.166572         1.349044         0.449183
 C         3.332879         0.394672         1.074392
 C         4.027653        -0.420211         0.108127
 C         3.492485        -0.407089        -1.352076
 O         2.024832        -0.412089        -1.420659
 O         3.431312        -1.697660         0.635330
 C         2.382081        -0.764338         1.085800
 H        -0.388155         0.590919         0.905209
 H        -0.394078         0.432413        -0.920803
 H        -0.464390        -1.040675        -0.159397
 H         2.320713         2.072365        -0.360372
 H         1.645205         1.633746         1.373602
 H         4.115983         0.629603         1.919348
 H         5.117517        -0.541498         0.122732
 H         3.950211         0.547837        -1.835745
 H         3.850593        -1.427155        -1.809470
 H         1.829506        -1.072867         2.046522
