19
Iteration:  3171
 C        -0.014745        -0.095293        -0.064260
 C         1.475913        -0.025258        -0.086475
 C         2.197647         1.291892         0.399850
 C         3.387419         0.443013         1.082674
 C         4.002535        -0.536680         0.046940
 C         3.445501        -0.266852        -1.313165
 O         2.067499        -0.432793        -1.264379
 O         3.350913        -1.722813         0.666887
 C         2.438121        -0.721907         1.077187
 H        -0.298962         0.401875         0.845494
 H        -0.398630         0.544820        -1.027065
 H        -0.340723        -1.127738        -0.143406
 H         2.632592         1.981377        -0.312004
 H         1.671567         1.859885         1.128733
 H         4.000725         1.021165         1.870251
 H         5.005558        -0.826385        -0.038376
 H         3.752238         0.818951        -1.634713
 H         3.786674        -1.147718        -1.967274
 H         1.769568        -1.029295         1.932620
