19
Iteration:  2496charge 0 multiplicity 1
 C         0.061282        -0.152909        -0.099173
 C         1.570565         0.032981         0.009720
 C         2.327913         1.295225         0.455647
 C         3.344730         0.453878         0.982265
 C         3.958907        -0.508952         0.069498
 C         3.450465        -0.336987        -1.374122
 O         2.007385        -0.337873        -1.301164
 O         3.319606        -1.733061         0.670072
 C         2.309342        -0.759065         1.141483
 H        -0.274076         0.541895         0.690322
 H        -0.144782         0.084489        -1.184181
 H        -0.224547        -1.190027        -0.133044
 H         2.296478         2.041912        -0.402044
 H         1.813130         1.957064         1.255571
 H         3.984223         0.814906         1.890576
 H         5.014012        -0.603122         0.129641
 H         3.733470         0.618986        -1.791723
 H         3.824847        -1.230041        -1.898586
 H         1.926895        -1.111653         2.123839
