19
Iteration:  3200charge 0 multiplicity 1
 C         0.057817        -0.017263         0.003529
 C         1.527916        -0.073612        -0.031431
 C         2.244590         1.271561         0.356399
 C         3.309542         0.416665         1.186484
 C         4.025888        -0.450031         0.087740
 C         3.484312        -0.338149        -1.350410
 O         2.025810        -0.513023        -1.316003
 O         3.350337        -1.600633         0.561962
 C         2.310438        -0.778915         1.068725
 H        -0.043677         0.784871         0.705796
 H        -0.196126         0.180694        -1.029135
 H        -0.374868        -1.070844         0.313352
 H         2.556727         2.091423        -0.350839
 H         1.663623         1.756086         1.186959
 H         3.823558         0.974383         1.969199
 H         5.135704        -0.657878         0.111216
 H         3.741498         0.676625        -1.620639
 H         3.884993        -0.937090        -2.120287
 H         1.725076        -1.268260         1.849131
