19
Iteration:  2475
 C        -0.053508        -0.042249        -0.047512
 C         1.583055        -0.020400        -0.019745
 C         2.226795         1.339577         0.346300
 C         3.340149         0.406772         1.121117
 C         4.060387        -0.549383         0.063806
 C         3.471646        -0.311707        -1.346568
 O         2.038959        -0.435816        -1.273528
 O         3.316766        -1.680923         0.588755
 C         2.391438        -0.776265         1.137987
 H        -0.448311         0.531576         0.857182
 H        -0.395803         0.227764        -1.022326
 H        -0.392648        -1.091739        -0.074741
 H         2.571355         2.067319        -0.433989
 H         1.555725         2.107835         0.863622
 H         3.937937         0.839814         2.013425
 H         5.115159        -0.768054         0.115324
 H         3.870766         0.667902        -1.594230
 H         3.858952        -1.067817        -2.075874
 H         1.859033        -1.127357         2.049156
