19
Iteration:  2925charge 0 multiplicity 1
 C         0.010416        -0.019098        -0.120624
 C         1.510494        -0.036725        -0.010493
 C         2.240661         1.288417         0.389664
 C         3.320728         0.458753         1.020030
 C         4.097379        -0.527589         0.072355
 C         3.392797        -0.281067        -1.298240
 O         2.034033        -0.453516        -1.254211
 O         3.385090        -1.735140         0.603904
 C         2.381358        -0.778717         1.133932
 H        -0.450090        -0.033105         0.965662
 H        -0.163686         0.956017        -0.485876
 H        -0.474378        -0.945192        -0.608248
 H         2.357703         1.985870        -0.445813
 H         1.675792         1.887786         1.117775
 H         3.818804         0.839921         1.917334
 H         5.143525        -0.564750         0.194049
 H         3.735046         0.738006        -1.643649
 H         3.856575        -0.934633        -2.046791
 H         1.814513        -1.087795         2.005375
