19
Iteration:  1854
 C         0.124855        -0.065287         0.056401
 C         1.569305        -0.005784        -0.115842
 C         2.249873         1.297736         0.337848
 C         3.225915         0.440929         1.061217
 C         4.072461        -0.422041         0.057864
 C         3.509264        -0.310429        -1.396827
 O         2.091711        -0.497455        -1.295890
 O         3.244273        -1.722498         0.670937
 C         2.289353        -0.754093         1.123634
 H        -0.310474         0.168663         1.146964
 H        -0.400145         0.723464        -0.605599
 H        -0.186875        -1.086826        -0.279427
 H         2.651390         2.021936        -0.361105
 H         1.755370         1.784312         1.166189
 H         3.631212         0.888012         1.961267
 H         5.241823        -0.366391         0.194767
 H         3.717877         0.671529        -1.907515
 H         3.811944        -1.271707        -1.975199
 H         1.682404        -1.112305         1.969764
