19
Iteration:  1986
 C         0.030962        -0.130202         0.016652
 C         1.577969         0.009460        -0.061473
 C         2.297949         1.308747         0.350786
 C         3.307883         0.457915         1.105726
 C         3.949369        -0.476610         0.004649
 C         3.453813        -0.256288        -1.252835
 O         2.056467        -0.363289        -1.377580
 O         3.314445        -1.771766         0.647170
 C         2.356078        -0.805195         1.141225
 H        -0.310790         0.372557         1.038415
 H        -0.533792         0.177972        -0.825186
 H        -0.266438        -1.177719         0.170525
 H         2.850871         1.995428        -0.372487
 H         1.577768         1.945963         0.832806
 H         4.049543         0.859775         1.745436
 H         5.083706        -0.682645         0.129260
 H         3.828217         0.527987        -1.863750
 H         3.824847        -1.014461        -1.995005
 H         1.734572        -1.059490         1.973950
