19
Iteration:   533charge 0 multiplicity 1
 C         0.079921        -0.045465        -0.218104
 C         1.524384         0.000016         0.025987
 C         2.144888         1.258969         0.488834
 C         3.336155         0.487366         1.027430
 C         4.104406        -0.566755         0.037559
 C         3.395003        -0.312128        -1.387412
 O         1.988565        -0.420828        -1.211937
 O         3.350336        -1.676574         0.646942
 C         2.465565        -0.805030         1.203919
 H        -0.597068        -0.107041         0.639902
 H        -0.072738         0.863541        -0.792801
 H        -0.120266        -0.895905        -0.848518
 H         2.350470         2.050686        -0.245714
 H         1.613382         1.733743         1.220599
 H         3.946634         0.968098         1.728752
 H         5.145782        -0.673568         0.023299
 H         3.696311         0.664650        -1.854236
 H         3.535023        -0.984104        -2.233568
 H         1.939924        -1.189785         2.078128
