19
Iteration:  3456
 C         0.015816        -0.087148        -0.037183
 C         1.495199         0.016001        -0.017868
 C         2.230827         1.334337         0.386412
 C         3.299700         0.477664         1.106233
 C         4.082408        -0.580824         0.079303
 C         3.495601        -0.348168        -1.364175
 O         2.021586        -0.403236        -1.272336
 O         3.329286        -1.706939         0.540818
 C         2.408031        -0.770364         1.138085
 H        -0.375716        -0.051786         0.978951
 H        -0.552764         0.668395        -0.648142
 H        -0.204940        -0.969632        -0.464700
 H         2.520162         2.009588        -0.392570
 H         1.704221         1.972484         1.099353
 H         3.852598         0.944668         1.917246
 H         5.113826        -0.616948         0.175953
 H         3.741857         0.634336        -1.798130
 H         3.864880        -1.215842        -1.883969
 H         1.854263        -1.034453         2.033464
