19
Iteration:  4431charge 0 multiplicity 1
 C        -0.073220        -0.159124         0.105822
 C         1.571105         0.030312        -0.031143
 C         2.259455         1.366065         0.474548
 C         3.302997         0.489032         1.034156
 C         4.108683        -0.545978         0.009904
 C         3.491821        -0.374113        -1.359234
 O         2.065024        -0.342797        -1.353686
 O         3.331762        -1.707124         0.626959
 C         2.303679        -0.782251         1.043301
 H        -0.522244         0.789027        -0.092195
 H        -0.226149        -0.821271        -0.773329
 H        -0.481537        -0.550214         1.105319
 H         2.457723         2.250454        -0.282098
 H         1.608231         1.887045         1.309307
 H         3.895626         0.911691         1.918717
 H         5.208664        -0.646149         0.028868
 H         3.972971         0.402690        -1.986655
 H         3.858319        -1.293706        -1.970053
 H         1.769438        -1.335985         1.843838
