19
Iteration:   803charge 0 multiplicity 1
 C         0.047681        -0.139240        -0.190572
 C         1.550089        -0.024830         0.023548
 C         2.209925         1.409857         0.485177
 C         3.308401         0.519065         1.049874
 C         3.988697        -0.580429        -0.027767
 C         3.441291        -0.371267        -1.379586
 O         2.008032        -0.427700        -1.268644
 O         3.389248        -1.696210         0.731256
 C         2.410785        -0.722620         1.145064
 H        -0.486257         0.291162         0.623716
 H        -0.234014         0.447454        -1.083322
 H        -0.161132        -1.169002        -0.417736
 H         2.395037         2.176788        -0.219459
 H         1.675909         1.779809         1.296405
 H         3.854278         0.845540         1.876602
 H         5.007269        -0.761177        -0.054458
 H         3.832196         0.563809        -1.988593
 H         3.828210        -1.277219        -1.999375
 H         1.912866        -0.922674         2.107465
