19
Iteration:  1272
 C        -0.054165        -0.057064        -0.122612
 C         1.525883         0.011003        -0.050437
 C         2.198757         1.340078         0.525956
 C         3.314355         0.511468         1.036904
 C         4.010796        -0.530219         0.049423
 C         3.507502        -0.467028        -1.410927
 O         2.038001        -0.394484        -1.287792
 O         3.411369        -1.666310         0.661795
 C         2.402144        -0.780935         1.107881
 H        -0.406760         0.601417         0.713741
 H        -0.508617         0.359378        -1.203734
 H        -0.387350        -1.111381         0.204875
 H         2.481375         2.091018        -0.179806
 H         1.621933         1.923394         1.309189
 H         3.872680         0.712183         1.952921
 H         5.145019        -0.740736         0.224871
 H         3.748016         0.370011        -1.964815
 H         3.864086        -1.404726        -1.939079
 H         1.981973        -1.074439         2.066768
