19
Iteration:  2907
 C        -0.062840         0.090935        -0.095833
 C         1.461155        -0.009874        -0.090707
 C         2.210263         1.305495         0.451247
 C         3.308573         0.408193         1.115228
 C         4.020863        -0.519557         0.005868
 C         3.549661        -0.319030        -1.384103
 O         1.989651        -0.514608        -1.280920
 O         3.459459        -1.643236         0.662519
 C         2.395576        -0.853351         1.162429
 H        -0.565703         0.040195         0.822935
 H        -0.548964         0.923067        -0.651410
 H        -0.249161        -0.887543        -0.548579
 H         2.498319         2.099700        -0.312391
 H         1.627799         1.697494         1.275839
 H         4.075791         0.808637         1.777430
 H         5.168109        -0.560360         0.000575
 H         3.804733         0.723322        -1.637745
 H         3.920706        -1.142623        -2.052837
 H         1.947254        -1.334995         2.057597
