19
Iteration:   467
 C         0.084601        -0.153472         0.069377
 C         1.566580         0.041130        -0.059234
 C         2.238695         1.332044         0.349624
 C         3.223090         0.407911         1.087269
 C         4.063807        -0.496680         0.065239
 C         3.516420        -0.300441        -1.305357
 O         2.027595        -0.369657        -1.360291
 O         3.278073        -1.738855         0.590455
 C         2.364443        -0.763174         1.091584
 H        -0.383410         0.243175         0.994024
 H        -0.440510         0.257952        -0.807268
 H        -0.125989        -1.269158         0.139687
 H         2.713937         2.058651        -0.385259
 H         1.601070         1.923346         0.912545
 H         3.828320         0.759766         1.911506
 H         5.080349        -0.527524         0.304364
 H         3.851102         0.632738        -1.459962
 H         3.926762        -1.035800        -2.104340
 H         1.826164        -1.036413         2.028692
