19
Iteration:   255
 C         0.016804        -0.043891         0.038529
 C         1.520970         0.008756        -0.068468
 C         2.194879         1.283841         0.419476
 C         3.267498         0.443873         1.081121
 C         4.063361        -0.487623         0.023135
 C         3.501095        -0.374624        -1.333494
 O         2.069695        -0.416019        -1.330370
 O         3.396705        -1.688318         0.651788
 C         2.342157        -0.774673         1.028826
 H        -0.326994         0.239263         1.093225
 H        -0.526192         0.605099        -0.690104
 H        -0.287333        -1.069481         0.058493
 H         2.397280         2.074440        -0.310194
 H         1.537217         1.832182         1.088166
 H         3.687945         0.731715         2.102535
 H         5.160576        -0.446424         0.036055
 H         3.854894         0.539380        -1.942938
 H         3.885596        -1.268207        -1.959122
 H         1.741267        -1.158584         1.912715
