19
Iteration:   907
 C         0.086393        -0.186093        -0.226287
 C         1.498303         0.020206         0.089712
 C         2.221768         1.308810         0.419631
 C         3.327229         0.521192         1.000800
 C         4.027048        -0.558213        -0.037130
 C         3.497904        -0.451307        -1.400612
 O         2.024025        -0.325940        -1.228322
 O         3.305747        -1.644294         0.643320
 C         2.378806        -0.727842         1.294283
 H        -0.567919         0.153828         0.627644
 H        -0.125254         0.254223        -1.203739
 H        -0.178347        -1.256138        -0.198686
 H         2.263989         2.128759        -0.397084
 H         1.773955         1.819813         1.380215
 H         3.934933         1.027181         1.862170
 H         5.140258        -0.634465         0.011868
 H         3.912321         0.439091        -1.996023
 H         3.637977        -1.370257        -1.943535
 H         1.943791        -1.075226         2.341223
