19
Iteration:  3951
 C         0.056855        -0.006197        -0.106698
 C         1.580148        -0.081225         0.011012
 C         2.210830         1.243702         0.479067
 C         3.371592         0.464883         1.033520
 C         3.975740        -0.473701         0.043158
 C         3.404609        -0.252976        -1.352142
 O         2.040926        -0.441313        -1.281276
 O         3.371662        -1.728624         0.645926
 C         2.375863        -0.818818         1.118848
 H        -0.241002         0.449341        -1.005174
 H        -0.426452        -0.913711        -0.067712
 H        -0.401803         0.597515         0.758305
 H         2.467225         2.095876        -0.183015
 H         1.474893         1.625930         1.249604
 H         4.168973         0.741860         1.594817
 H         5.010105        -0.606642        -0.054983
 H         3.571419         0.832420        -1.842493
 H         3.700612        -0.938702        -2.208014
 H         1.833761        -1.001622         2.012739
