19
Iteration:  2503charge 0 multiplicity 1
 C         0.041374        -0.163941        -0.108298
 C         1.592756         0.001414         0.003802
 C         2.254029         1.394062         0.473962
 C         3.384876         0.427453         1.046853
 C         3.967014        -0.553829         0.036601
 C         3.443218        -0.379716        -1.405010
 O         2.010995        -0.330893        -1.308909
 O         3.311995        -1.688532         0.685545
 C         2.352236        -0.767957         1.132583
 H        -0.543414         0.369417         0.603328
 H        -0.288350         0.205086        -1.188506
 H        -0.239473        -1.226058        -0.006276
 H         2.469751         2.209491        -0.250772
 H         1.759653         1.918395         1.279725
 H         4.021002         0.803536         1.834167
 H         5.053850        -0.739422         0.147929
 H         4.000599         0.524368        -1.826574
 H         3.801439        -1.158378        -2.051536
 H         1.831538        -1.005012         2.073715
