19
Iteration:  1663
 C        -0.014698        -0.212418        -0.197946
 C         1.523537        -0.016175        -0.009944
 C         2.274098         1.353437         0.474875
 C         3.388023         0.473126         1.069846
 C         4.006393        -0.539880         0.073579
 C         3.450425        -0.496948        -1.376895
 O         2.037468        -0.274055        -1.306807
 O         3.337392        -1.690403         0.662129
 C         2.385388        -0.659687         1.207417
 H        -0.351055         0.320032         0.702063
 H        -0.457208         0.524806        -0.987381
 H        -0.371169        -1.211788        -0.418923
 H         2.383402         1.972182        -0.334570
 H         1.697397         1.765169         1.320615
 H         4.127643         1.089517         1.596354
 H         5.049914        -0.498752         0.282573
 H         3.707808         0.265808        -2.110291
 H         3.672691        -1.370940        -1.885024
 H         1.849977        -1.159460         2.067928
