19
Iteration:  1998charge 0 multiplicity 1
 C         0.087596        -0.088427        -0.021643
 C         1.548033        -0.041103        -0.044797
 C         2.276126         1.308552         0.413099
 C         3.310037         0.435567         1.113492
 C         3.993070        -0.519810         0.086025
 C         3.424284        -0.323775        -1.402650
 O         2.022145        -0.416877        -1.352945
 O         3.334663        -1.658712         0.633783
 C         2.356061        -0.770578         1.138818
 H        -0.308025         0.508981         0.912659
 H        -0.259645         0.484458        -0.846152
 H        -0.289442        -1.125642        -0.037362
 H         2.586136         1.954034        -0.462538
 H         1.733251         1.850435         1.131029
 H         3.845324         0.697732         1.996953
 H         5.122871        -0.449770        -0.051533
 H         3.732152         0.686954        -1.562786
 H         3.829832        -1.092672        -2.081615
 H         1.817505        -1.233293         1.923511
