19
Iteration:  1300charge 0 multiplicity 1
 C         0.059125         0.030230        -0.104034
 C         1.554206        -0.051243         0.035565
 C         2.178665         1.219392         0.389970
 C         3.318184         0.490084         1.030519
 C         3.990675        -0.429338         0.059276
 C         3.434164        -0.507022        -1.350541
 O         1.995506        -0.274177        -1.371964
 O         3.446823        -1.663118         0.724158
 C         2.380480        -0.868631         1.139479
 H        -0.434597         0.421224         0.753797
 H        -0.072185         0.555907        -0.926944
 H        -0.296153        -0.949897        -0.177615
 H         2.266276         2.008676        -0.415628
 H         1.591936         1.652406         1.204429
 H         3.887009         0.793646         1.899124
 H         5.012630        -0.588396         0.040900
 H         3.817348         0.367989        -2.055540
 H         3.742403        -1.507659        -1.614308
 H         1.887614        -1.274227         2.059728
