19
Iteration:  1782
 C         0.025672        -0.183636        -0.156254
 C         1.549195         0.007588        -0.001202
 C         2.222457         1.384942         0.477952
 C         3.314003         0.547815         1.080856
 C         4.087091        -0.574374        -0.001182
 C         3.494821        -0.461523        -1.350005
 O         2.003723        -0.350776        -1.302047
 O         3.277770        -1.707079         0.699185
 C         2.435901        -0.713124         1.111841
 H        -0.458672         0.460079         0.604611
 H        -0.402614         0.290825        -1.095982
 H        -0.303928        -1.220391        -0.050116
 H         2.515634         2.293094        -0.199558
 H         1.530901         1.618216         1.363239
 H         3.912021         1.019863         1.871439
 H         5.146004        -0.778692        -0.011370
 H         3.911419         0.448190        -1.970310
 H         3.770321        -1.311732        -2.004449
 H         1.788428        -0.906247         2.002567
