19
Iteration:  3890charge 0 multiplicity 1
 C         0.127466        -0.145065         0.017431
 C         1.572962         0.050905        -0.042262
 C         2.255643         1.402099         0.503622
 C         3.277928         0.415066         1.126211
 C         4.036614        -0.531097         0.082890
 C         3.408697        -0.386127        -1.413485
 O         2.005509        -0.334681        -1.366272
 O         3.331288        -1.682740         0.576543
 C         2.320113        -0.803653         1.073575
 H        -0.335765        -0.010754        -1.032848
 H         0.012064        -1.281920         0.262933
 H        -0.345861         0.530211         0.751260
 H         2.559899         2.043776        -0.343443
 H         1.605643         1.876200         1.213651
 H         4.008115         0.738089         2.001330
 H         5.186791        -0.673766         0.139639
 H         3.859501         0.482768        -1.829178
 H         3.731416        -1.257635        -1.933556
 H         1.795572        -1.109348         2.030370
