19
Iteration:  1191
 C         0.022779        -0.109969        -0.012884
 C         1.541833         0.039763        -0.077571
 C         2.152497         1.394682         0.443479
 C         3.328580         0.504031         1.070111
 C         4.065785        -0.558386         0.046488
 C         3.498074        -0.496762        -1.327032
 O         2.037992        -0.361658        -1.382560
 O         3.381134        -1.670227         0.701098
 C         2.370335        -0.759450         1.076170
 H        -0.457610        -0.081805         1.008409
 H        -0.441222         0.762255        -0.576578
 H        -0.290841        -0.968457        -0.616275
 H         2.294657         2.314785        -0.219609
 H         1.569219         1.607720         1.336923
 H         3.895753         0.833238         1.961472
 H         5.117096        -0.594423        -0.020612
 H         3.912221         0.287439        -1.880832
 H         3.726943        -1.463402        -1.740105
 H         1.677149        -1.270504         1.828601
