19
Iteration:  4950
 C         0.005827        -0.121848        -0.098096
 C         1.544783         0.071554        -0.029667
 C         2.253400         1.310990         0.502049
 C         3.373180         0.380970         1.020812
 C         4.084714        -0.464638        -0.008723
 C         3.449617        -0.313882        -1.394976
 O         2.013143        -0.420021        -1.284834
 O         3.299401        -1.685800         0.638141
 C         2.383070        -0.762058         1.173428
 H        -0.361638         0.509465        -1.005085
 H        -0.189380        -1.174134        -0.055611
 H        -0.407151         0.206153         0.917398
 H         2.483143         2.146043        -0.160623
 H         1.620119         1.570123         1.366261
 H         3.884444         0.599463         1.965735
 H         5.153417        -0.675826         0.148770
 H         3.819191         0.720904        -1.805751
 H         3.562052        -1.154662        -2.132412
 H         1.764100        -1.185903         1.933490
