19
Iteration:  4654
 C         0.039007        -0.009304         0.002665
 C         1.587701        -0.048846        -0.041670
 C         2.209716         1.273198         0.416195
 C         3.288432         0.441941         1.164988
 C         3.992656        -0.533840         0.072884
 C         3.451841        -0.354296        -1.443434
 O         1.992606        -0.398404        -1.326796
 O         3.421332        -1.675427         0.566124
 C         2.356937        -0.785248         1.185328
 H        -0.340434         1.018759        -0.203997
 H        -0.276135        -0.618986        -0.802709
 H        -0.227676        -0.321652         0.924316
 H         2.730038         1.936982        -0.288703
 H         1.553457         1.905842         1.095185
 H         3.872869         0.773854         1.973989
 H         5.062134        -0.373155         0.055850
 H         3.669358         0.646776        -1.932626
 H         3.925360        -1.232921        -2.061908
 H         1.755363        -1.281731         1.932605
