19
Iteration:  1646
 C        -0.022347        -0.154328        -0.072782
 C         1.523586         0.066080        -0.010386
 C         2.197201         1.360929         0.438043
 C         3.319466         0.441853         1.038579
 C         4.050986        -0.548754         0.011837
 C         3.493073        -0.441707        -1.364779
 O         2.043458        -0.297247        -1.368294
 O         3.347088        -1.686275         0.734628
 C         2.378515        -0.742678         1.132591
 H        -0.645898         0.269804         0.725209
 H        -0.391484         0.143845        -1.043523
 H        -0.043059        -1.273275        -0.030028
 H         2.620657         2.167618        -0.333925
 H         1.668776         1.969828         1.203988
 H         3.834755         0.581804         2.025049
 H         5.177439        -0.789908        -0.014257
 H         4.162659         0.363706        -1.855590
 H         3.699692        -1.494589        -1.881284
 H         1.843002        -0.892256         2.071155
