19
Iteration:  2989
 C         0.049879        -0.215997        -0.018486
 C         1.516490         0.036145         0.032643
 C         2.196630         1.368939         0.476224
 C         3.334942         0.399083         1.114153
 C         4.045290        -0.590659         0.036297
 C         3.485838        -0.405882        -1.418482
 O         2.086409        -0.248389        -1.396684
 O         3.285386        -1.690079         0.650975
 C         2.365231        -0.722850         1.141006
 H        -0.510421         0.357581         0.795081
 H        -0.317316         0.082622        -1.009623
 H        -0.272203        -1.280673         0.022314
 H         2.347970         1.840618        -0.495322
 H         1.680531         2.092745         1.166345
 H         4.019326         0.835179         1.845356
 H         5.165869        -0.601550         0.123372
 H         4.012244         0.562782        -1.880716
 H         3.647241        -1.148212        -2.212515
 H         1.809619        -1.067709         2.023937
