19
Iteration:  1703
 C        -0.045586        -0.068712        -0.109060
 C         1.521386         0.012222        -0.068227
 C         2.221108         1.375875         0.404867
 C         3.350164         0.478921         1.035098
 C         4.043580        -0.545828         0.088354
 C         3.485713        -0.338575        -1.402642
 O         2.066979        -0.537769        -1.258549
 O         3.342351        -1.672795         0.680220
 C         2.373928        -0.749510         1.150160
 H        -0.422354        -0.098064         1.009429
 H        -0.503712         0.787997        -0.514633
 H        -0.516771        -0.924003        -0.589479
 H         2.702752         2.187366        -0.346849
 H         1.604283         1.866789         1.169292
 H         4.080733         0.743722         1.783571
 H         5.141805        -0.659893         0.280200
 H         3.902463         0.708050        -1.690586
 H         3.798704        -1.155071        -2.182114
 H         1.723552        -0.986997         1.957950
