19
Iteration:  3760charge 0 multiplicity 1
 C         0.024444        -0.082958         0.004359
 C         1.519475        -0.008476        -0.012574
 C         2.222230         1.254942         0.354991
 C         3.316341         0.436706         0.998126
 C         4.064751        -0.486877         0.069949
 C         3.434565        -0.379409        -1.404275
 O         2.061674        -0.354714        -1.290917
 O         3.350817        -1.701507         0.645046
 C         2.356443        -0.727645         1.179732
 H        -0.384535         0.768684         0.622322
 H        -0.330460         0.087148        -1.079900
 H        -0.346453        -0.989038         0.269218
 H         2.380014         2.014124        -0.396683
 H         1.727941         1.843314         1.122306
 H         3.816308         0.674172         1.987369
 H         5.200934        -0.525189         0.055065
 H         3.914298         0.507317        -2.001671
 H         3.806028        -1.342593        -1.830375
 H         1.820710        -1.133936         2.107859
