19
Iteration:  2579charge 0 multiplicity 1
 C        -0.029196        -0.043120        -0.023630
 C         1.530555         0.052444        -0.102577
 C         2.315894         1.372297         0.360698
 C         3.325215         0.444595         1.103133
 C         4.086894        -0.573928         0.092774
 C         3.430814        -0.295751        -1.337077
 O         1.972878        -0.498979        -1.319463
 O         3.392899        -1.711686         0.648470
 C         2.342334        -0.790051         1.111856
 H        -0.568423        -0.069413         0.877859
 H        -0.443547         0.903743        -0.466864
 H        -0.360285        -0.932549        -0.541514
 H         2.686124         2.007348        -0.467562
 H         1.696019         1.796718         1.110808
 H         3.950749         0.741506         1.942397
 H         5.204178        -0.503389         0.302955
 H         3.673275         0.774512        -1.585985
 H         4.009615        -0.969782        -1.991473
 H         1.732860        -1.302128         1.896479
