19
Iteration:  3044charge 0 multiplicity 1
 C        -0.021020        -0.061492        -0.109505
 C         1.519802         0.011334        -0.065164
 C         2.305323         1.382932         0.495440
 C         3.266857         0.402604         1.141403
 C         4.038787        -0.526665        -0.005369
 C         3.468563        -0.286293        -1.397650
 O         2.068289        -0.555567        -1.223864
 O         3.362258        -1.643851         0.588955
 C         2.374250        -0.794075         1.134208
 H        -0.443885         0.657962         0.713360
 H        -0.263878         0.527231        -0.966218
 H        -0.547416        -1.031420         0.038851
 H         2.583564         2.189089        -0.205626
 H         1.423518         1.786363         1.092282
 H         3.913422         0.790056         1.931694
 H         5.192278        -0.516068         0.060001
 H         3.732195         0.704496        -1.878060
 H         3.660406        -1.090652        -2.111130
 H         1.897417        -1.294525         1.969934
