19
Iteration:   706charge 0 multiplicity 1
 C         0.050973         0.021069        -0.015454
 C         1.514890        -0.005764        -0.094561
 C         2.204582         1.293562         0.388862
 C         3.227433         0.442247         1.087428
 C         4.042547        -0.459094         0.037800
 C         3.500202        -0.349062        -1.325675
 O         2.035568        -0.491314        -1.324124
 O         3.423907        -1.657363         0.691633
 C         2.341515        -0.831902         1.092992
 H        -0.175837         0.087347         1.037423
 H        -0.442122         0.858342        -0.506328
 H        -0.275994        -0.914699        -0.413608
 H         2.569956         1.866230        -0.571260
 H         1.572930         1.861206         1.045039
 H         3.731373         0.731115         1.959713
 H         5.087996        -0.477923         0.003542
 H         3.784012         0.586535        -1.650280
 H         3.827648        -1.133679        -2.036830
 H         1.847613        -1.341368         2.001108
