19
Iteration:  1674
 C         0.059617        -0.136980        -0.187271
 C         1.576825        -0.006993         0.041199
 C         2.194374         1.310842         0.440436
 C         3.370134         0.520250         0.994212
 C         3.998879        -0.522202         0.037728
 C         3.432409        -0.476796        -1.335539
 O         2.027609        -0.342814        -1.248716
 O         3.290315        -1.620653         0.645302
 C         2.419057        -0.759010         1.166903
 H        -0.570831        -0.048964         0.725436
 H        -0.146712         0.634273        -1.018496
 H        -0.190970        -1.141158        -0.541796
 H         2.457297         2.090031        -0.207856
 H         1.625462         1.811103         1.245014
 H         4.126319         0.847606         1.732931
 H         5.059430        -0.706717         0.083411
 H         3.993086         0.306116        -1.773513
 H         3.601953        -1.405627        -1.744903
 H         1.803782        -1.035375         2.070264
