19
Iteration:  4012
 C         0.069374        -0.210405         0.048944
 C         1.553495        -0.033371        -0.014464
 C         2.193784         1.309177         0.395207
 C         3.341533         0.426617         1.048760
 C         4.031657        -0.556156         0.000200
 C         3.529328        -0.352281        -1.367777
 O         2.016890        -0.236745        -1.390794
 O         3.259996        -1.677024         0.645861
 C         2.362129        -0.716361         1.170941
 H        -0.433797         0.804707        -0.063474
 H        -0.181880        -0.858076        -0.853819
 H        -0.283052        -0.714279         0.912610
 H         2.563105         2.078644        -0.261391
 H         1.489628         1.702426         1.116262
 H         4.104663         0.802235         1.852282
 H         5.095674        -0.831037         0.169722
 H         3.992416         0.528022        -1.744393
 H         3.819718        -1.225796        -1.939282
 H         1.886206        -0.986929         2.149088
