19
Iteration:  4178
 C         0.017728        -0.189123        -0.047048
 C         1.540971         0.033662        -0.037412
 C         2.255075         1.419840         0.529433
 C         3.351621         0.423381         1.016998
 C         4.015745        -0.607566        -0.011195
 C         3.479995        -0.331711        -1.380827
 O         2.060509        -0.368127        -1.305203
 O         3.274633        -1.681786         0.611864
 C         2.378895        -0.725533         1.185693
 H        -0.507086         0.203523        -0.869136
 H         0.008435        -1.220580        -0.060889
 H        -0.457829        -0.019074         0.962055
 H         2.414103         2.213077        -0.204887
 H         1.633679         1.851278         1.310757
 H         4.094520         0.793998         1.654458
 H         5.059495        -0.739834         0.009983
 H         3.894345         0.669633        -1.814477
 H         3.747144        -1.136925        -2.133665
 H         1.732955        -1.009834         1.976239
