19
Iteration:   390
 C        -0.005313        -0.036110        -0.046497
 C         1.502939        -0.067750        -0.029268
 C         2.215125         1.256362         0.472309
 C         3.302627         0.409857         1.023568
 C         4.067651        -0.431398         0.059631
 C         3.478288        -0.388485        -1.376933
 O         2.002202        -0.400777        -1.323500
 O         3.414718        -1.624156         0.663719
 C         2.367935        -0.774335         1.100743
 H        -0.478236         0.021491         0.948430
 H        -0.301125         0.851868        -0.657778
 H        -0.370997        -0.961002        -0.667890
 H         2.565179         1.919763        -0.390488
 H         1.837794         1.809834         1.304679
 H         3.715608         0.709373         2.056673
 H         5.125484        -0.463972         0.192377
 H         3.873156         0.486202        -1.988534
 H         3.802820        -1.390532        -1.948996
 H         1.872005        -1.121170         2.069999
