19
Iteration:   992
 C        -0.000373        -0.030166        -0.050650
 C         1.530109        -0.025176        -0.080591
 C         2.258589         1.280382         0.298251
 C         3.325731         0.488812         1.100829
 C         4.060696        -0.468990         0.074646
 C         3.499735        -0.282708        -1.272331
 O         2.038399        -0.561224        -1.238715
 O         3.288835        -1.655230         0.588683
 C         2.383632        -0.770969         1.140995
 H        -0.375840        -0.015715         1.096636
 H        -0.461221         0.779535        -0.584986
 H        -0.405825        -1.003124        -0.409333
 H         2.593394         1.958188        -0.549504
 H         1.569732         1.886516         0.759049
 H         4.048468         0.850779         1.945060
 H         5.096139        -0.560628         0.188396
 H         3.723247         0.702477        -1.725849
 H         3.883208        -0.950509        -2.041309
 H         1.858415        -1.403383         1.995042
