19
Iteration:   338
 C         0.021475        -0.186433         0.029211
 C         1.555852         0.024508        -0.085308
 C         2.217930         1.329421         0.341180
 C         3.387105         0.394852         1.107010
 C         4.046513        -0.521750         0.066491
 C         3.495926        -0.249547        -1.370612
 O         2.074644        -0.432292        -1.323031
 O         3.253268        -1.683107         0.601705
 C         2.327896        -0.669960         1.202166
 H        -0.268878         0.076120         1.032823
 H        -0.603070         0.324038        -0.690534
 H        -0.095484        -1.198955        -0.268391
 H         2.547765         1.935967        -0.431254
 H         1.516194         1.745468         1.017265
 H         3.961543         0.672815         1.878590
 H         5.119523        -0.689225         0.124510
 H         3.792859         0.731803        -1.763853
 H         3.840519        -1.060587        -1.996950
 H         1.772597        -1.062155         1.961435
