19
Iteration:  4258
 C         0.087784        -0.033548        -0.100463
 C         1.545067        -0.052890        -0.032084
 C         2.248727         1.317187         0.471969
 C         3.385887         0.499970         1.076347
 C         3.979369        -0.504145         0.037368
 C         3.427178        -0.313287        -1.316327
 O         1.984588        -0.539677        -1.295671
 O         3.312506        -1.665059         0.556031
 C         2.450454        -0.789187         1.195091
 H        -0.246901         0.966194        -0.427607
 H        -0.237799        -0.716639        -0.960176
 H        -0.339409        -0.106379         0.882606
 H         2.345845         2.021716        -0.280241
 H         1.617478         1.679158         1.267927
 H         3.879043         0.915954         2.029671
 H         5.081172        -0.465452        -0.143125
 H         3.614446         0.788060        -1.578491
 H         3.715957        -1.047503        -2.145937
 H         1.787712        -1.177576         2.012072
