19
Iteration:  2032
 C        -0.073705         0.040238        -0.172636
 C         1.538066        -0.004778        -0.004383
 C         2.183551         1.306111         0.513956
 C         3.353762         0.445263         1.021784
 C         3.994029        -0.471853         0.004017
 C         3.422286        -0.457398        -1.309054
 O         2.103070        -0.479168        -1.229560
 O         3.390826        -1.669655         0.558636
 C         2.453197        -0.783136         1.171816
 H        -0.497215         0.059160         0.919930
 H        -0.373031         0.921526        -0.734600
 H        -0.594757        -0.791624        -0.698150
 H         2.182962         2.146139        -0.209514
 H         1.825552         1.685249         1.401931
 H         3.888465         0.873182         1.863205
 H         5.112612        -0.501503         0.034480
 H         3.733547         0.492471        -1.766543
 H         3.822031        -1.175987        -2.043768
 H         2.011571        -1.146943         2.066854
