19
Iteration:  2709
 C         0.007848        -0.142228         0.000453
 C         1.478193         0.058757        -0.009841
 C         2.237891         1.379387         0.429339
 C         3.331922         0.459494         1.082944
 C         4.000902        -0.564396         0.044917
 C         3.548397        -0.338702        -1.334002
 O         2.081788        -0.449382        -1.264133
 O         3.302531        -1.683254         0.519725
 C         2.347920        -0.759043         1.103538
 H        -0.479403         0.055819         0.984320
 H        -0.474409         0.564052        -0.692841
 H        -0.449447        -1.074920        -0.462441
 H         2.591235         2.180484        -0.313164
 H         1.800978         2.092638         1.156619
 H         4.155156         0.655124         1.761437
 H         5.114573        -0.830473         0.276796
 H         3.869014         0.668296        -1.630410
 H         3.891475        -1.055626        -2.180527
 H         1.856154        -1.174953         2.006010
