19
Iteration:   347
 C         0.131766        -0.174948         0.067027
 C         1.556842        -0.011087        -0.027121
 C         2.252890         1.354212         0.347845
 C         3.269219         0.414927         1.057462
 C         4.008665        -0.511734         0.073548
 C         3.543955        -0.251883        -1.369326
 O         2.054012        -0.434261        -1.349268
 O         3.281551        -1.692799         0.631326
 C         2.250121        -0.715308         1.109287
 H        -0.136593        -0.101149         1.113655
 H        -0.432588         0.603197        -0.457371
 H        -0.214765        -1.255656        -0.114435
 H         2.414670         1.989474        -0.535760
 H         1.725541         1.917206         1.042826
 H         3.850835         0.781174         1.924937
 H         5.062878        -0.688714         0.087702
 H         3.900619         0.762559        -1.782905
 H         4.012039        -1.079411        -2.098917
 H         1.747074        -1.066748         2.004547
