19
Iteration:  4967charge 0 multiplicity 1
 C         0.024626         0.023418        -0.069702
 C         1.523454        -0.057753        -0.002099
 C         2.165483         1.283895         0.462632
 C         3.290619         0.497206         1.090969
 C         3.960949        -0.564436         0.019411
 C         3.469254        -0.319048        -1.377634
 O         2.032929        -0.393118        -1.310510
 O         3.450447        -1.740985         0.596578
 C         2.410625        -0.833051         1.172985
 H        -0.156717         0.856513        -0.777220
 H        -0.394470        -0.993625        -0.327790
 H        -0.453070         0.345155         0.802588
 H         2.438827         1.958423        -0.383231
 H         1.604925         1.920417         1.160465
 H         4.009595         0.902154         1.846128
 H         5.054810        -0.550587        -0.076821
 H         3.603950         0.671609        -1.718012
 H         3.869247        -1.067742        -2.026385
 H         2.013563        -1.187420         2.170004
