19
Iteration:  1250charge 0 multiplicity 1
 C         0.061035        -0.178682        -0.056384
 C         1.584761         0.048327        -0.059531
 C         2.246924         1.332635         0.405487
 C         3.386399         0.429748         1.050404
 C         4.074234        -0.567736         0.068413
 C         3.429489        -0.286955        -1.314486
 O         2.047857        -0.488387        -1.267810
 O         3.229926        -1.701109         0.591014
 C         2.316634        -0.631674         1.152297
 H        -0.532528         0.293447         0.751536
 H        -0.123578         0.321003        -1.197324
 H        -0.192205        -1.303125         0.056528
 H         2.508826         2.103060        -0.265855
 H         1.762383         1.933032         1.218625
 H         3.984133         0.868310         1.843744
 H         5.246083        -0.512008        -0.033913
 H         3.646683         0.699801        -1.664802
 H         3.807656        -1.096616        -2.026908
 H         1.714415        -0.948207         1.998739
