19
Iteration:   601charge 0 multiplicity 1
 C         0.044999        -0.143026         0.120151
 C         1.551956        -0.063083        -0.090457
 C         2.243028         1.318285         0.384021
 C         3.211813         0.442639         1.079513
 C         4.008338        -0.421226         0.065151
 C         3.565219        -0.315055        -1.345614
 O         2.083773        -0.339722        -1.413815
 O         3.264145        -1.725948         0.642583
 C         2.349869        -0.810018         1.091966
 H        -0.104127         0.303553         1.181254
 H        -0.486317         0.445488        -0.655536
 H        -0.376929        -1.171348         0.217075
 H         2.687257         1.883802        -0.381232
 H         1.752590         2.108005         0.962132
 H         3.863290         0.853314         1.844206
 H         5.092394        -0.545774         0.330150
 H         3.946908         0.568628        -1.872768
 H         4.066418        -1.207310        -1.989860
 H         1.747733        -1.210967         1.846513
