19
Iteration:   941charge 0 multiplicity 1
 C        -0.014029        -0.193714        -0.037955
 C         1.485227         0.047647        -0.049437
 C         2.240596         1.349626         0.473542
 C         3.326616         0.507106         1.056756
 C         4.074026        -0.591083         0.074002
 C         3.515824        -0.492089        -1.360094
 O         2.030119        -0.333688        -1.425655
 O         3.370353        -1.649950         0.666206
 C         2.347383        -0.660111         1.149466
 H        -0.504498         0.394751         0.729624
 H        -0.549329         0.151292        -0.947199
 H        -0.179232        -1.287974        -0.023992
 H         2.235915         2.200486        -0.241869
 H         1.705717         1.645595         1.476685
 H         3.804836         0.952263         1.953356
 H         5.206280        -0.731623         0.051359
 H         3.978916         0.372600        -1.920993
 H         3.714149        -1.422064        -1.906942
 H         1.937237        -1.059928         2.106385
