19
Iteration:   317charge 0 multiplicity 1
 C        -0.010145        -0.208206        -0.150605
 C         1.502655         0.006564         0.051839
 C         2.293618         1.400830         0.493405
 C         3.358531         0.504450         1.018549
 C         4.030170        -0.544069         0.040490
 C         3.482187        -0.337196        -1.346516
 O         2.005568        -0.432473        -1.263078
 O         3.310496        -1.701091         0.580963
 C         2.392022        -0.706995         1.153892
 H        -0.536497         0.355917         0.625650
 H        -0.323308         0.178838        -1.113015
 H        -0.260453        -1.222488        -0.202072
 H         2.472740         2.028319        -0.318981
 H         1.808833         1.851452         1.404229
 H         3.896516         0.948945         1.732815
 H         5.106040        -0.777444         0.024935
 H         3.813710         0.633805        -1.604083
 H         3.808031        -1.053087        -1.993935
 H         2.029637        -1.112524         2.032254
