19
Iteration:  1634
 C         0.091195        -0.160279        -0.005890
 C         1.546711         0.069278        -0.062427
 C         2.221069         1.383590         0.406625
 C         3.289266         0.416920         1.037640
 C         4.003285        -0.601743         0.076319
 C         3.474562        -0.429719        -1.313027
 O         2.055668        -0.316445        -1.337070
 O         3.354116        -1.677542         0.724483
 C         2.320686        -0.725399         1.025379
 H        -0.357889         0.415655         0.751533
 H        -0.381440         0.107647        -0.985266
 H        -0.191349        -1.233867         0.209259
 H         2.477676         2.083907        -0.464501
 H         1.534619         1.841525         1.165466
 H         4.034032         0.765771         1.816475
 H         5.141018        -0.559963         0.182787
 H         3.806755         0.592144        -1.760964
 H         3.803840        -1.265420        -2.088163
 H         1.678913        -1.192143         1.806664
