19
Iteration:  2703charge 0 multiplicity 1
 C         0.020316        -0.159892         0.030917
 C         1.504164         0.059943        -0.013876
 C         2.258402         1.364847         0.445705
 C         3.303245         0.439541         1.046478
 C         4.046521        -0.575759         0.082281
 C         3.530438        -0.315791        -1.410813
 O         2.097214        -0.418119        -1.252613
 O         3.244397        -1.647430         0.544954
 C         2.350011        -0.768271         1.086719
 H        -0.402839         0.040483         0.987352
 H        -0.477266         0.514142        -0.821439
 H        -0.206513        -1.136120        -0.375019
 H         2.472402         1.898424        -0.471914
 H         1.800849         1.945108         1.252085
 H         4.035483         0.767193         1.839460
 H         5.061675        -0.902369         0.226510
 H         3.975087         0.689060        -1.644264
 H         3.798335        -1.106411        -2.046086
 H         1.780801        -1.114226         1.970820
