19
Iteration:  1445
 C        -0.049236        -0.032058        -0.125163
 C         1.477460         0.008899         0.008807
 C         2.188163         1.296588         0.456120
 C         3.354055         0.384928         0.998237
 C         4.040410        -0.530992         0.059196
 C         3.476048        -0.345777        -1.344254
 O         2.074333        -0.451558        -1.255171
 O         3.373270        -1.669134         0.628367
 C         2.402963        -0.716098         1.121549
 H        -0.462712         0.615484         0.613710
 H        -0.239918         0.321808        -1.118800
 H        -0.466204        -0.992782         0.052767
 H         2.516785         1.883015        -0.368819
 H         1.708704         1.930720         1.320562
 H         3.796838         0.764730         1.892178
 H         5.114207        -0.656445         0.008473
 H         3.900463         0.539577        -1.908599
 H         3.879471        -1.280392        -1.863429
 H         1.876376        -0.903843         2.113267
