19
Iteration:  4867charge 0 multiplicity 1
 C         0.012572        -0.013240        -0.065235
 C         1.519280         0.061841        -0.038282
 C         2.234750         1.322447         0.494080
 C         3.321239         0.439974         1.072210
 C         4.037521        -0.527285         0.017075
 C         3.446871        -0.307303        -1.345542
 O         2.013011        -0.454714        -1.335063
 O         3.415658        -1.750072         0.616208
 C         2.389712        -0.788388         1.126550
 H        -0.633692         0.610986        -0.543567
 H        -0.187414        -1.024728        -0.489340
 H        -0.338773         0.116667         0.995128
 H         2.360592         2.225755        -0.150853
 H         1.563770         1.686514         1.297246
 H         3.919470         0.752950         2.018664
 H         5.157035        -0.588008        -0.036972
 H         3.854380         0.596291        -1.872165
 H         3.715904        -1.138935        -2.013894
 H         1.654339        -1.141157         1.969096
