19
Iteration:   787charge 0 multiplicity 1
 C         0.066250        -0.208771        -0.253624
 C         1.526421         0.025710        -0.012863
 C         2.228295         1.277072         0.487967
 C         3.442315         0.448019         1.005042
 C         4.016637        -0.523042         0.047241
 C         3.387929        -0.408801        -1.405079
 O         2.014850        -0.378737        -1.304810
 O         3.278088        -1.638900         0.693083
 C         2.424860        -0.640380         1.317808
 H        -0.625602         0.091876         0.605502
 H        -0.119908         0.269016        -1.235630
 H        -0.266456        -1.291021        -0.272957
 H         2.431032         2.183949        -0.185979
 H         1.581575         1.706711         1.367748
 H         4.273445         0.863705         1.699855
 H         5.208928        -0.553116         0.082297
 H         3.724151         0.589058        -1.693619
 H         3.552712        -1.101375        -2.199014
 H         1.902091        -1.032569         2.190781
