19
Iteration:  2038charge 0 multiplicity 1
 C        -0.032892         0.018653        -0.197436
 C         1.552168        -0.049325         0.022650
 C         2.190148         1.303624         0.487999
 C         3.335546         0.446495         1.040272
 C         3.987542        -0.493829        -0.006767
 C         3.469722        -0.442754        -1.322963
 O         2.017967        -0.437839        -1.247985
 O         3.403606        -1.634696         0.567775
 C         2.449713        -0.800256         1.218079
 H        -0.457356         0.034893         0.770493
 H        -0.325884         1.081309        -0.538641
 H        -0.514205        -0.788566        -0.731948
 H         2.278148         1.994238        -0.388401
 H         1.739685         1.592888         1.549082
 H         3.997037         0.881742         1.822741
 H         5.069510        -0.702150         0.137626
 H         3.744646         0.527287        -1.961153
 H         3.857860        -1.178518        -2.080035
 H         1.907971        -0.998021         2.206821
