19
Iteration:  2441
 C         0.082096        -0.012964         0.002951
 C         1.601784         0.026973        -0.116290
 C         2.226484         1.294427         0.393126
 C         3.308157         0.429717         1.052157
 C         4.001827        -0.454808         0.068662
 C         3.468650        -0.362888        -1.319836
 O         2.054488        -0.490128        -1.286844
 O         3.300522        -1.670612         0.620802
 C         2.334667        -0.773759         1.099354
 H        -0.214617         0.156987         1.041185
 H        -0.312520         0.836384        -0.611473
 H        -0.146189        -1.001477        -0.356965
 H         2.439959         2.033619        -0.407309
 H         1.420210         1.450484         1.153695
 H         3.976911         0.648335         1.985439
 H         5.055201        -0.535516         0.071018
 H         3.580926         0.599371        -1.771628
 H         3.843817        -1.230746        -1.861419
 H         1.855678        -1.067550         2.054507
