19
Iteration:  4666
 C         0.036050         0.032951        -0.032416
 C         1.519344        -0.035959        -0.009972
 C         2.255666         1.257520         0.434434
 C         3.286503         0.414106         1.146546
 C         4.097700        -0.381237         0.019429
 C         3.419739        -0.321085        -1.316790
 O         2.017186        -0.490818        -1.276578
 O         3.387658        -1.669674         0.561890
 C         2.369316        -0.850121         1.057384
 H        -0.135744         1.108037        -0.228144
 H        -0.542654        -0.512978        -0.683147
 H        -0.406951        -0.173944         0.885160
 H         2.458163         1.847454        -0.472265
 H         1.541205         1.813015         1.085189
 H         3.821940         0.787578         1.966245
 H         5.159994        -0.621477         0.064183
 H         3.790691         0.572583        -1.922630
 H         3.667952        -1.271474        -1.935789
 H         1.822609        -1.299141         1.898456
