19
Iteration:  2553
 C         0.092147        -0.133892        -0.029867
 C         1.570827        -0.006193        -0.035864
 C         2.246993         1.287140         0.433396
 C         3.302815         0.449066         1.061209
 C         4.016000        -0.506044        -0.024947
 C         3.466267        -0.391704        -1.350162
 O         2.065297        -0.315338        -1.324328
 O         3.275552        -1.708191         0.639645
 C         2.304873        -0.736893         1.172612
 H        -0.445173        -0.043890         1.029679
 H        -0.201258         0.756020        -0.505812
 H        -0.335757        -1.094056        -0.448163
 H         2.478329         1.876943        -0.512645
 H         1.715487         2.003038         1.170122
 H         3.969837         0.853607         1.857498
 H         5.107273        -0.500962         0.069425
 H         3.957430         0.389385        -1.847021
 H         3.998594        -1.262413        -1.844854
 H         1.762336        -1.058718         2.073544
