19
Iteration:  1775
 C         0.000343        -0.126725        -0.102942
 C         1.553512        -0.003370        -0.086471
 C         2.218024         1.342802         0.469833
 C         3.368909         0.509419         1.081102
 C         4.099995        -0.544266         0.044395
 C         3.510249        -0.446686        -1.348701
 O         1.965369        -0.371240        -1.302067
 O         3.292561        -1.685685         0.685910
 C         2.394567        -0.680869         1.068704
 H        -0.511095         0.348854         0.706607
 H        -0.462148         0.280064        -1.126559
 H        -0.283845        -1.232239        -0.133527
 H         2.414550         2.132075        -0.177973
 H         1.546162         1.688600         1.311320
 H         3.981683         0.832197         1.965235
 H         5.170839        -0.661347         0.284924
 H         3.775865         0.336985        -1.971019
 H         3.955668        -1.329953        -1.789679
 H         1.999712        -1.004606         2.081765
