19
Iteration:  4160charge 0 multiplicity 1
 C         0.022398        -0.336649        -0.058239
 C         1.499883         0.120116         0.071904
 C         2.274992         1.404011         0.445400
 C         3.430611         0.496575         1.044848
 C         4.011623        -0.558312         0.083655
 C         3.497952        -0.362853        -1.343805
 O         2.030483        -0.341821        -1.241515
 O         3.215882        -1.779659         0.466594
 C         2.372936        -0.633510         1.088680
 H        -0.268465        -0.001895        -1.081576
 H        -0.212251        -1.457460         0.087158
 H        -0.555129         0.332664         0.663129
 H         2.526683         2.152889        -0.273072
 H         1.920409         1.886479         1.359960
 H         3.947981         0.776070         1.993550
 H         5.120813        -0.736204         0.131814
 H         3.725452         0.615486        -1.762539
 H         3.848225        -1.174666        -2.040641
 H         2.136740        -0.920304         2.132476
