19
Iteration:  3521charge 0 multiplicity 1
 C        -0.065531        -0.013868        -0.062094
 C         1.509707        -0.099695         0.001472
 C         2.204337         1.267688         0.476298
 C         3.352660         0.454828         1.032248
 C         4.039642        -0.511486         0.008312
 C         3.496299        -0.329207        -1.382767
 O         2.051157        -0.439554        -1.327277
 O         3.374876        -1.673916         0.691569
 C         2.415708        -0.721089         1.105934
 H        -0.513040        -0.030439         0.946980
 H        -0.358426         0.965482        -0.604817
 H        -0.434496        -0.789749        -0.639183
 H         2.490725         1.923331        -0.345344
 H         1.672252         1.836459         1.280509
 H         3.951211         0.724889         1.892027
 H         5.045949        -0.836115        -0.007866
 H         3.719230         0.710000        -1.644608
 H         3.780116        -1.141564        -2.040074
 H         1.862680        -1.036774         1.986490
