19
Iteration:  1740
 C         0.055751        -0.026746         0.024566
 C         1.573162        -0.061194        -0.117574
 C         2.209047         1.357863         0.324931
 C         3.239213         0.498885         1.106595
 C         4.009118        -0.499554         0.114393
 C         3.536900        -0.332679        -1.421822
 O         2.043391        -0.474617        -1.276645
 O         3.327391        -1.708323         0.675130
 C         2.383570        -0.794807         1.128839
 H        -0.250324         0.083465         1.057989
 H        -0.272195         0.875189        -0.696448
 H        -0.349542        -0.999471        -0.377165
 H         2.708599         1.828620        -0.528232
 H         1.482294         2.146924         0.714213
 H         3.869369         0.731638         1.998106
 H         5.056017        -0.598244         0.275782
 H         3.683427         0.619918        -1.835515
 H         3.739328        -1.099123        -2.079299
 H         1.783484        -1.287886         1.984012
