19
Iteration:  4882
 C        -0.010800        -0.184470         0.019371
 C         1.510282         0.031966        -0.093183
 C         2.228079         1.395179         0.460695
 C         3.360599         0.444063         1.056605
 C         4.060795        -0.598956         0.068000
 C         3.472521        -0.362611        -1.359500
 O         2.008251        -0.287445        -1.361920
 O         3.317324        -1.718655         0.627519
 C         2.404116        -0.775385         1.113531
 H        -0.357797         0.506692        -0.912004
 H        -0.452776        -1.215039        -0.138146
 H        -0.348005         0.048672         0.999572
 H         2.610955         2.044444        -0.278383
 H         1.734792         1.835661         1.303636
 H         3.944900         0.665346         1.914224
 H         5.143969        -0.698474         0.092819
 H         3.757628         0.753061        -1.616233
 H         3.926661        -1.048975        -2.045212
 H         1.983321        -1.109722         2.044297
