19
Iteration:  1615
 C         0.013462        -0.105962         0.006098
 C         1.581479        -0.040400        -0.041118
 C         2.254051         1.327435         0.342634
 C         3.318480         0.502848         1.095942
 C         4.003312        -0.482232         0.089726
 C         3.532164        -0.266804        -1.342802
 O         2.060406        -0.460532        -1.415562
 O         3.258570        -1.747069         0.628179
 C         2.336299        -0.754033         1.178623
 H        -0.222049         0.589577         0.886808
 H        -0.551831         0.241866        -0.799673
 H        -0.172685        -1.183641         0.167178
 H         2.767230         2.076156        -0.404157
 H         1.655450         1.822495         1.103061
 H         3.722611         0.943657         1.988214
 H         5.071945        -0.755521         0.167264
 H         3.916471         0.564865        -1.794699
 H         3.915704        -1.103916        -1.923342
 H         1.782844        -0.968814         2.057230
