19
Iteration:   584
 C         0.087105        -0.073790         0.016235
 C         1.578547         0.021171        -0.024524
 C         2.182616         1.339586         0.352142
 C         3.274146         0.439049         1.136578
 C         4.020129        -0.537237         0.119053
 C         3.498921        -0.332771        -1.335288
 O         2.049177        -0.439006        -1.317382
 O         3.385059        -1.687897         0.553685
 C         2.309467        -0.758693         1.070522
 H        -0.200457         0.164847         1.019018
 H        -0.408694         0.577472        -0.716709
 H        -0.219675        -1.132895        -0.130152
 H         2.423292         2.071276        -0.503599
 H         1.362184         1.762132         1.052844
 H         3.783743         0.684301         2.136241
 H         5.108407        -0.614548        -0.107160
 H         3.884032         0.696592        -1.697877
 H         3.708900        -1.139117        -2.005921
 H         1.666769        -1.128823         1.958308
