19
Iteration:  1554charge 0 multiplicity 1
 C         0.024000        -0.021352        -0.225855
 C         1.504488        -0.071348         0.010131
 C         2.240798         1.280217         0.517303
 C         3.356887         0.465169         1.084512
 C         3.987951        -0.566599        -0.003694
 C         3.440409        -0.434736        -1.414670
 O         1.991768        -0.403583        -1.369867
 O         3.442664        -1.613478         0.732895
 C         2.375962        -0.711844         1.240113
 H        -0.378373        -0.121810         0.845393
 H        -0.494489         0.900601        -0.655690
 H        -0.357488        -0.931049        -0.710384
 H         2.458905         2.007349        -0.199278
 H         1.567190         1.784304         1.268618
 H         4.043296         0.949057         1.806369
 H         5.061975        -0.653342        -0.128569
 H         3.825349         0.534516        -1.869541
 H         3.846199        -1.292869        -1.987765
 H         1.776357        -1.098644         2.136178
