19
Iteration:  4989
 C        -0.005743         0.095063        -0.036259
 C         1.493059        -0.099795        -0.018086
 C         2.215111         1.222432         0.355715
 C         3.286580         0.379757         1.111285
 C         4.132828        -0.430817         0.065232
 C         3.480537        -0.304364        -1.343515
 O         1.964956        -0.445153        -1.286916
 O         3.433873        -1.674553         0.619438
 C         2.385741        -0.855214         1.081171
 H        -0.270118         1.061606        -0.420611
 H        -0.535312        -0.805315        -0.520785
 H        -0.454388         0.160313         0.910751
 H         2.356899         1.986733        -0.431919
 H         1.663700         1.729031         1.163668
 H         3.963109         0.783985         1.881825
 H         5.216977        -0.305414         0.043184
 H         3.633078         0.661353        -1.830126
 H         3.826632        -1.147542        -1.897219
 H         1.826901        -1.222298         1.999008
