19
Iteration:  2698charge 0 multiplicity 1
 C         0.027695        -0.159280         0.007272
 C         1.553615         0.038767         0.002981
 C         2.269136         1.340350         0.443525
 C         3.315705         0.420512         1.027318
 C         4.068216        -0.575819         0.074879
 C         3.518985        -0.287885        -1.412866
 O         2.096889        -0.380452        -1.262745
 O         3.198086        -1.659276         0.569057
 C         2.328066        -0.743352         1.098103
 H        -0.367057         0.028729         1.053722
 H        -0.457162         0.498364        -0.732832
 H         0.001161        -1.290031        -0.187223
 H         2.436259         1.839991        -0.545004
 H         1.726292         1.833370         1.267016
 H         3.783203         0.869207         1.913971
 H         5.210207        -0.806042         0.152336
 H         3.920091         0.646430        -1.811793
 H         3.782524        -1.201305        -2.058339
 H         1.728646        -1.098357         1.956064
