19
Iteration:  2655
 C         0.043435        -0.157792        -0.073708
 C         1.476278         0.079515         0.012545
 C         2.257969         1.367187         0.461713
 C         3.328688         0.438353         1.096064
 C         4.085719        -0.586043        -0.021733
 C         3.471682        -0.392166        -1.424450
 O         2.022472        -0.274835        -1.333479
 O         3.375820        -1.731371         0.706578
 C         2.270388        -0.736645         1.116768
 H        -0.504529         0.278577         0.812997
 H        -0.491770         0.119290        -1.079763
 H        -0.115377        -1.290662        -0.080899
 H         2.654854         2.137551        -0.262918
 H         1.831724         1.806380         1.377118
 H         3.972557         0.643523         1.949121
 H         5.247453        -0.782374         0.002812
 H         3.867817         0.537971        -1.782078
 H         3.749022        -1.287886        -2.080287
 H         1.667157        -1.125251         1.973646
