19
Iteration:  1584charge 0 multiplicity 1
 C         0.037915        -0.027505        -0.127583
 C         1.526475        -0.031978         0.042316
 C         2.256522         1.355432         0.347212
 C         3.305043         0.472550         1.035418
 C         4.071445        -0.515905         0.056244
 C         3.488862        -0.275271        -1.325653
 O         2.057442        -0.539139        -1.179142
 O         3.339405        -1.703975         0.592935
 C         2.311198        -0.768262         1.102263
 H        -0.402328         0.030253         0.967572
 H        -0.389759         0.648915        -0.823615
 H        -0.381590        -1.030152        -0.259999
 H         2.574205         2.075820        -0.417620
 H         1.691501         1.873916         1.082421
 H         3.700835         0.996231         1.860601
 H         5.112804        -0.722919         0.085094
 H         3.692001         0.784887        -1.851794
 H         3.786770        -1.054681        -1.966016
 H         1.763112        -1.147954         1.947821
