19
Iteration:  2656
 C         0.048616        -0.158772        -0.067511
 C         1.479421         0.079461         0.018674
 C         2.261629         1.366656         0.467779
 C         3.328918         0.448643         1.090889
 C         4.078001        -0.595661        -0.022756
 C         3.472127        -0.393438        -1.419167
 O         2.022157        -0.273859        -1.347104
 O         3.372543        -1.731346         0.708009
 C         2.272780        -0.739649         1.117348
 H        -0.477706         0.246484         0.786922
 H        -0.532697         0.079511        -1.097430
 H        -0.120445        -1.260741        -0.093335
 H         2.662097         2.141395        -0.252324
 H         1.843524         1.838194         1.363076
 H         3.961073         0.666985         1.973074
 H         5.241781        -0.770482         0.021672
 H         3.852885         0.566826        -1.795811
 H         3.752068        -1.269571        -2.072015
 H         1.665962        -1.155787         1.974304
