19
Iteration:   444
 C        -0.047815        -0.170841        -0.134089
 C         1.536120        -0.047195        -0.003732
 C         2.270437         1.296943         0.464719
 C         3.447246         0.464464         1.059074
 C         3.999297        -0.517103        -0.010077
 C         3.489959        -0.256754        -1.369876
 O         2.067315        -0.428352        -1.229881
 O         3.318092        -1.665499         0.620998
 C         2.304327        -0.722124         1.162028
 H        -0.548674         0.279196         0.722058
 H        -0.302149         0.437369        -1.025032
 H        -0.528791        -1.209816        -0.155930
 H         2.331371         2.169962        -0.343252
 H         1.841895         1.835920         1.281675
 H         4.095295         0.883709         1.917647
 H         5.052854        -0.728805        -0.099471
 H         3.872906         0.640300        -1.643755
 H         3.837442        -1.052610        -2.099864
 H         1.651824        -1.243738         1.979572
