19
Iteration:  4500charge 0 multiplicity 1
 C        -0.002438        -0.108548        -0.038560
 C         1.491188        -0.002197        -0.036178
 C         2.313589         1.383698         0.512482
 C         3.305398         0.397388         1.086056
 C         4.032050        -0.474501        -0.001673
 C         3.406425        -0.313263        -1.354668
 O         2.064575        -0.469287        -1.240053
 O         3.324986        -1.678919         0.517098
 C         2.434796        -0.772805         1.135031
 H        -0.272867         0.370859        -1.049342
 H        -0.217359        -1.221896        -0.122117
 H        -0.549662         0.409839         0.684332
 H         2.541944         2.335937        -0.069804
 H         1.646180         1.778905         1.393054
 H         3.938322         0.765749         1.915142
 H         5.120245        -0.703147        -0.033373
 H         3.717929         0.567075        -1.870107
 H         3.777419        -1.175834        -2.075330
 H         1.757101        -0.996556         1.969854
