19
Iteration:  2858
 C        -0.000699        -0.151522        -0.053722
 C         1.483551         0.059690        -0.026995
 C         2.212752         1.370754         0.428418
 C         3.330529         0.420614         1.080576
 C         4.044218        -0.532514         0.081555
 C         3.494616        -0.357974        -1.436417
 O         2.107557        -0.349183        -1.304721
 O         3.312302        -1.730850         0.593179
 C         2.356034        -0.762071         1.167810
 H        -0.639640         0.199934         0.834620
 H        -0.522818         0.495433        -0.773779
 H        -0.201804        -1.240280        -0.033808
 H         2.629828         2.061071        -0.282248
 H         1.797652         1.892224         1.327401
 H         3.900490         0.884327         1.903292
 H         5.099142        -0.645703         0.068420
 H         3.825379         0.558531        -1.846061
 H         3.890012        -1.215780        -1.978402
 H         1.915136        -1.192678         2.071773
