19
Iteration:  3426
 C         0.070357        -0.251303         0.020362
 C         1.587259         0.009428        -0.075910
 C         2.249183         1.362141         0.443099
 C         3.315221         0.461797         1.110960
 C         4.021743        -0.680297         0.038627
 C         3.523010        -0.275708        -1.456056
 O         2.034774        -0.301333        -1.404941
 O         3.241907        -1.719690         0.695728
 C         2.347981        -0.669786         1.133961
 H        -0.282056         0.275286         1.010591
 H        -0.541937         0.196574        -0.849331
 H        -0.107144        -1.376782         0.248548
 H         2.538037         2.119553        -0.263874
 H         1.720692         1.802272         1.282294
 H         3.897756         0.862230         1.918768
 H         5.108662        -0.753300         0.125455
 H         3.841823         0.792192        -1.771621
 H         3.753285        -1.128455        -2.165627
 H         1.728181        -0.848317         2.031015
