19
Iteration:  3693
 C        -0.055098        -0.174778         0.009052
 C         1.535670        -0.024565         0.065400
 C         2.229574         1.325149         0.302166
 C         3.352749         0.492845         1.041962
 C         4.000354        -0.629706         0.090416
 C         3.517777        -0.372580        -1.358293
 O         2.068082        -0.356806        -1.402771
 O         3.265066        -1.672080         0.629819
 C         2.448839        -0.688976         1.218871
 H        -0.496358        -0.517873         0.950464
 H        -0.451470         0.839662        -0.255780
 H        -0.270695        -0.825122        -0.811889
 H         2.511990         2.070299        -0.439481
 H         1.781383         1.881040         1.131517
 H         4.028176         1.095620         1.749491
 H         5.094267        -0.808949         0.206346
 H         3.906998         0.613685        -1.829746
 H         3.820372        -1.075567        -2.120719
 H         1.847880        -0.862577         2.156366
