19
Iteration:   287charge 0 multiplicity 1
 C         0.014677        -0.071296        -0.200027
 C         1.529523        -0.006287         0.004721
 C         2.199247         1.275243         0.531063
 C         3.317269         0.478675         1.087329
 C         4.025680        -0.499244        -0.035588
 C         3.422418        -0.431580        -1.413356
 O         2.017068        -0.342579        -1.262205
 O         3.393187        -1.675568         0.675210
 C         2.454434        -0.770331         1.171649
 H        -0.469121         0.621021         0.568766
 H        -0.317848         0.151902        -1.240963
 H        -0.281310        -1.073120        -0.013281
 H         2.373371         2.014801        -0.262271
 H         1.469671         1.699799         1.380061
 H         3.892118         0.955012         1.937353
 H         5.130941        -0.674181        -0.100594
 H         3.864315         0.500883        -1.915705
 H         3.659001        -1.313374        -2.023850
 H         2.021258        -1.212485         2.121912
