19
Iteration:  3041
 C        -0.014925        -0.063569        -0.102767
 C         1.500012         0.008223        -0.048886
 C         2.302583         1.393028         0.523699
 C         3.266675         0.413710         1.130174
 C         4.046174        -0.558650        -0.013603
 C         3.490606        -0.284462        -1.405899
 O         2.049453        -0.550388        -1.222212
 O         3.374301        -1.634603         0.590544
 C         2.381114        -0.782799         1.123495
 H        -0.413005         0.588845         0.647052
 H        -0.351383         0.457855        -1.100430
 H        -0.559021        -0.931354         0.009459
 H         2.579156         2.192377        -0.201136
 H         1.417639         1.793918         1.058691
 H         3.815927         0.827623         2.054257
 H         5.211562        -0.603258         0.036615
 H         3.735026         0.587081        -1.861361
 H         3.712562        -1.075956        -2.191293
 H         1.872520        -1.309474         1.988669
