19
Iteration:  3739charge 0 multiplicity 1
 C         0.042481        -0.238370        -0.066225
 C         1.573378         0.031512        -0.028356
 C         2.304844         1.381550         0.504415
 C         3.374265         0.593269         1.116756
 C         4.002357        -0.587367         0.018573
 C         3.459842        -0.485584        -1.389533
 O         1.970692        -0.354828        -1.354691
 O         3.279671        -1.665670         0.640292
 C         2.355873        -0.706288         1.153031
 H        -0.526006         0.135663         0.859028
 H        -0.366216         0.299949        -1.026334
 H        -0.074598        -1.251658        -0.221791
 H         2.505674         2.138142        -0.304358
 H         1.677884         2.002037         1.228740
 H         4.188560         0.795587         1.863857
 H         5.123108        -0.649881        -0.142014
 H         3.913865         0.456485        -1.850049
 H         3.797162        -1.386171        -2.019471
 H         1.856070        -0.993923         2.145358
