19
Iteration:  2844charge 0 multiplicity 1
 C        -0.053650        -0.243207        -0.019428
 C         1.531219        -0.021529        -0.036928
 C         2.318616         1.399357         0.474401
 C         3.358663         0.424143         1.044187
 C         4.052759        -0.554384        -0.002874
 C         3.588048        -0.293575        -1.314536
 O         2.018073        -0.321836        -1.318567
 O         3.241675        -1.730220         0.644493
 C         2.348153        -0.694743         1.083877
 H        -0.278904         0.144483         0.886415
 H        -0.557186         0.200641        -0.978834
 H        -0.283315        -1.243316        -0.122090
 H         2.524628         1.952439        -0.441616
 H         1.701369         2.013132         1.155048
 H         4.019115         0.516462         1.914009
 H         5.160797        -0.716659         0.201065
 H         3.913581         0.707986        -1.681746
 H         3.688772        -1.034849        -2.070397
 H         1.691033        -0.818950         1.983857
