19
Iteration:  1303charge 0 multiplicity 1
 C         0.056461         0.019439        -0.097563
 C         1.561341        -0.055490        -0.003029
 C         2.193983         1.232384         0.410819
 C         3.333794         0.489677         1.007013
 C         3.976101        -0.451511         0.110607
 C         3.426935        -0.480247        -1.358937
 O         1.988319        -0.289689        -1.352410
 O         3.445448        -1.654421         0.721786
 C         2.382236        -0.858213         1.114920
 H        -0.393270         0.333806         0.784518
 H        -0.209067         0.670180        -1.035984
 H        -0.325654        -1.008612        -0.257594
 H         2.344436         1.905037        -0.393039
 H         1.628898         1.726204         1.312654
 H         3.828537         0.842503         1.843778
 H         5.084063        -0.531492         0.030999
 H         3.786094         0.300294        -2.003362
 H         3.687868        -1.543623        -1.649366
 H         1.923328        -1.256187         2.058089
