19
Iteration:   944charge 0 multiplicity 1
 C        -0.026827        -0.186199        -0.022068
 C         1.495177         0.054826        -0.078474
 C         2.240418         1.340769         0.459026
 C         3.321185         0.481988         1.061761
 C         4.087317        -0.570654         0.085268
 C         3.490497        -0.475424        -1.366125
 O         2.050902        -0.342388        -1.436238
 O         3.360851        -1.635250         0.675596
 C         2.344972        -0.683836         1.166721
 H        -0.463698         0.318156         0.850887
 H        -0.590366         0.195606        -0.998755
 H        -0.190942        -1.295604         0.075799
 H         2.314321         2.199418        -0.197131
 H         1.697166         1.701240         1.474285
 H         3.814272         0.942844         1.844292
 H         5.255310        -0.753675         0.038491
 H         3.930641         0.308508        -1.857842
 H         3.773562        -1.385773        -1.949838
 H         1.903552        -1.040091         2.017210
