19
Iteration:  2377
 C         0.090058        -0.165835        -0.045112
 C         1.564982         0.018584         0.010800
 C         2.194982         1.396620         0.477522
 C         3.363102         0.518447         1.037300
 C         4.025153        -0.566713         0.015440
 C         3.475409        -0.420794        -1.390377
 O         2.032734        -0.374503        -1.316365
 O         3.249790        -1.719564         0.650530
 C         2.401854        -0.708302         1.125188
 H        -0.558375        -0.085964         0.899835
 H        -0.221780         0.493242        -0.826547
 H        -0.199841        -1.002316        -0.687348
 H         2.396659         2.170423        -0.259817
 H         1.475520         1.908809         1.208262
 H         4.103170         0.788572         1.858492
 H         5.090319        -0.766213         0.146754
 H         3.928154         0.599899        -1.687372
 H         3.709642        -1.353966        -1.983646
 H         1.831738        -1.030878         2.021750
