19
Iteration:  1458
 C        -0.028318        -0.079236        -0.095224
 C         1.502508         0.002551        -0.022264
 C         2.294039         1.321398         0.375890
 C         3.382798         0.513057         1.071686
 C         4.123314        -0.556662         0.058166
 C         3.508131        -0.328455        -1.284832
 O         1.987435        -0.472463        -1.273008
 O         3.318380        -1.740273         0.617298
 C         2.319646        -0.706441         1.113062
 H        -0.529091         0.482997         0.568500
 H        -0.425850         0.201763        -1.103779
 H        -0.343282        -1.091831         0.048642
 H         2.350714         2.136831        -0.384250
 H         1.708321         1.896114         1.211313
 H         4.104413         0.761788         1.904207
 H         5.259311        -0.662100         0.156156
 H         3.653694         0.856300        -1.527969
 H         3.743812        -1.007962        -2.211198
 H         1.823391        -1.091186         2.038152
