19
Iteration:   212
 C        -0.012793        -0.192505        -0.062922
 C         1.517665        -0.013467        -0.052656
 C         2.289705         1.260665         0.413795
 C         3.377456         0.463423         1.037633
 C         4.084093        -0.491221         0.048641
 C         3.443640        -0.249742        -1.301523
 O         2.052930        -0.449881        -1.289009
 O         3.241015        -1.689787         0.618412
 C         2.370138        -0.644035         1.130010
 H        -0.347589        -0.497877         0.973511
 H        -0.586972         0.673164        -0.450912
 H        -0.186748        -1.162389        -0.530350
 H         2.607183         2.045542        -0.286711
 H         1.824018         1.770895         1.166554
 H         4.031622         0.920943         1.845523
 H         5.106693        -0.815627         0.033783
 H         3.802721         0.685371        -1.763990
 H         3.847110        -1.004741        -2.100427
 H         1.819674        -0.898080         2.090875
