19
Iteration:  2110
 C         0.125041        -0.154867         0.036891
 C         1.574410        -0.016599        -0.012847
 C         2.166348         1.369523         0.389169
 C         3.365754         0.445607         1.057978
 C         3.952232        -0.550583         0.017522
 C         3.579046        -0.314360        -1.344166
 O         2.079698        -0.377613        -1.247975
 O         3.199942        -1.717146         0.562440
 C         2.318039        -0.701397         1.081003
 H        -0.156084         0.284975         1.015539
 H        -0.416259         0.473440        -0.710803
 H        -0.194908        -1.216861         0.143888
 H         2.526683         1.846909        -0.484686
 H         1.471925         1.930223         0.988618
 H         4.085116         0.656877         1.927130
 H         5.011404        -0.660365         0.176939
 H         3.976476         0.624412        -1.910796
 H         3.857877        -1.137312        -2.035112
 H         1.851865        -1.133088         1.954446
