19
Iteration:   720
 C        -0.008698        -0.075166         0.076718
 C         1.570120        -0.120526        -0.119466
 C         2.276896         1.314415         0.349044
 C         3.251891         0.445962         1.181709
 C         4.021435        -0.445701         0.127756
 C         3.492295        -0.358921        -1.407950
 O         2.050597        -0.452533        -1.463405
 O         3.372044        -1.667103         0.652348
 C         2.329659        -0.751451         1.128291
 H        -0.134052         0.068424         1.174123
 H        -0.332512         0.774130        -0.488107
 H        -0.685433        -0.892557        -0.072342
 H         2.768029         2.050431        -0.385083
 H         1.607747         1.987043         0.932030
 H         3.859275         0.778175         2.041347
 H         5.128704        -0.400037         0.302924
 H         3.715662         0.679115        -1.763127
 H         3.968655        -1.146454        -1.902486
 H         1.603006        -1.015415         1.900993
