19
Iteration:  3077
 C         0.014010        -0.084486        -0.014994
 C         1.578873        -0.050500        -0.031207
 C         2.198647         1.306835         0.321053
 C         3.270963         0.481357         1.146257
 C         4.084297        -0.594308         0.081737
 C         3.473144        -0.284659        -1.352629
 O         2.008032        -0.414171        -1.316684
 O         3.342064        -1.665509         0.605914
 C         2.378932        -0.771374         1.125262
 H        -0.325159         0.130444         1.070318
 H        -0.155296         0.779075        -0.579571
 H        -0.411867        -0.945779        -0.592688
 H         2.600599         1.937216        -0.509798
 H         1.578225         1.914546         1.068182
 H         3.912456         0.826938         1.938202
 H         5.225128        -0.749864         0.152144
 H         3.822412         0.680813        -1.646896
 H         3.723764        -1.074291        -2.031994
 H         1.902620        -1.181971         2.002884
