19
Iteration:   516
 C        -0.008469        -0.072622        -0.095837
 C         1.513223        -0.037260         0.006736
 C         2.211820         1.352554         0.447233
 C         3.341326         0.463128         1.037045
 C         3.977470        -0.490242         0.028102
 C         3.501091        -0.359130        -1.308421
 O         2.042144        -0.398477        -1.298120
 O         3.410507        -1.738657         0.602003
 C         2.361243        -0.764296         1.116478
 H        -0.425067        -0.045052         0.946814
 H        -0.412583         0.785479        -0.675384
 H        -0.410617        -0.990689        -0.575152
 H         2.342349         2.069827        -0.365895
 H         1.670386         1.747113         1.409692
 H         4.008876         0.766861         1.897350
 H         5.121251        -0.488330         0.080691
 H         3.808333         0.682320        -1.772582
 H         3.895253        -1.283165        -1.814129
 H         1.852268        -1.078989         2.032782
