19
Iteration:  1738
 C         0.070427        -0.027601         0.017233
 C         1.566963        -0.060278        -0.113238
 C         2.199040         1.347718         0.315248
 C         3.258055         0.490838         1.108878
 C         4.011527        -0.493681         0.145709
 C         3.527027        -0.322487        -1.408051
 O         2.033193        -0.486355        -1.291130
 O         3.331539        -1.711807         0.666838
 C         2.384108        -0.787962         1.137833
 H        -0.269225         0.122542         1.108798
 H        -0.274664         0.859659        -0.612455
 H        -0.325354        -0.949512        -0.415278
 H         2.744247         1.811820        -0.625890
 H         1.466090         2.115095         0.728916
 H         3.865242         0.681642         1.988097
 H         5.063483        -0.591502         0.304881
 H         3.721778         0.678083        -1.904736
 H         3.692545        -1.055400        -2.170829
 H         1.738597        -1.186717         1.952944
