19
Iteration:  1681
 C         0.108314        -0.096111        -0.149414
 C         1.515034         0.007038         0.037684
 C         2.178007         1.337296         0.455250
 C         3.353637         0.525489         1.008562
 C         4.025422        -0.527886         0.009410
 C         3.467774        -0.455901        -1.332205
 O         2.041921        -0.394184        -1.255226
 O         3.309398        -1.683111         0.643147
 C         2.367035        -0.714902         1.187642
 H        -0.682472        -0.033842         0.709630
 H        -0.204514         0.580932        -0.886485
 H         0.023228        -1.057686        -0.681785
 H         2.334231         2.122285        -0.482429
 H         1.656323         1.781839         1.312658
 H         3.870047         0.796367         1.914170
 H         5.109269        -0.747194        -0.148528
 H         3.942657         0.412253        -1.926182
 H         3.701995        -1.436968        -1.916224
 H         1.907797        -0.998570         2.107080
