19
Iteration:  4887charge 0 multiplicity 1
 C         0.009280        -0.229606         0.021802
 C         1.524240         0.006389        -0.045462
 C         2.255008         1.343757         0.450037
 C         3.371357         0.466789         1.016820
 C         4.033375        -0.610871         0.052714
 C         3.506046        -0.341899        -1.350318
 O         2.008787        -0.243305        -1.353401
 O         3.297403        -1.708023         0.617813
 C         2.376316        -0.746032         1.139357
 H        -0.384093         0.329299        -0.788168
 H        -0.423284        -1.193958        -0.167730
 H        -0.419861         0.216158         0.998372
 H         2.620501         2.026555        -0.394028
 H         1.682409         1.914162         1.244723
 H         4.007641         0.531900         1.960271
 H         5.149027        -0.609083         0.125788
 H         3.814518         0.611979        -1.643265
 H         3.933703        -1.055090        -2.137981
 H         1.674616        -1.129707         1.953874
