19
Iteration:  3442
 C         0.094631        -0.168084         0.035712
 C         1.574052         0.013745        -0.026066
 C         2.250318         1.322516         0.410646
 C         3.344847         0.424181         0.975396
 C         3.949276        -0.485215         0.028060
 C         3.495760        -0.318224        -1.310514
 O         2.081641        -0.351333        -1.333202
 O         3.255583        -1.706392         0.658249
 C         2.301331        -0.740213         1.113531
 H        -0.255860         0.093221         0.993665
 H        -0.368166         0.455330        -0.688362
 H        -0.214117        -1.296909        -0.195502
 H         2.460542         2.042149        -0.460204
 H         1.639067         1.796208         1.222454
 H         4.049306         0.684596         1.804540
 H         5.081170        -0.711156         0.043838
 H         4.011733         0.545973        -1.683398
 H         3.809696        -0.988159        -2.113872
 H         1.728583        -1.198864         1.959554
