19
Iteration:  3275charge 0 multiplicity 1
 C         0.026585        -0.226529        -0.081123
 C         1.526307         0.034881        -0.026858
 C         2.262848         1.430298         0.500164
 C         3.307845         0.515794         1.010944
 C         3.987293        -0.610811        -0.010400
 C         3.485912        -0.421213        -1.383994
 O         2.071045        -0.342307        -1.356306
 O         3.278167        -1.677894         0.691442
 C         2.396557        -0.737346         1.211566
 H        -0.266498        -0.447387         0.947558
 H        -0.492181         0.544139        -0.454994
 H        -0.087695        -1.150406        -0.700093
 H         2.499393         2.298315        -0.169310
 H         1.618303         1.808798         1.345216
 H         4.105024         0.929208         1.586064
 H         5.116135        -0.693981         0.195007
 H         4.026373         0.516728        -1.810023
 H         3.629728        -1.142285        -2.201633
 H         1.804108        -1.078138         2.061809
