19
Iteration:   761
 C         0.014293        -0.253768        -0.056238
 C         1.526549         0.005924         0.005399
 C         2.227115         1.425360         0.401862
 C         3.332268         0.483433         0.996209
 C         4.034294        -0.595013         0.077772
 C         3.504818        -0.343294        -1.355495
 O         2.094412        -0.383941        -1.239731
 O         3.276736        -1.705027         0.616405
 C         2.359946        -0.656383         1.123435
 H        -0.559449         0.171155         0.776865
 H        -0.268038         0.291684        -0.949395
 H        -0.277322        -1.272425        -0.195714
 H         2.557198         2.136116        -0.449690
 H         1.684176         1.989628         1.130029
 H         3.923810         0.754627         1.814748
 H         5.056503        -0.717837         0.170176
 H         3.900202         0.501124        -1.798008
 H         3.663472        -1.122898        -2.118086
 H         1.853194        -1.022030         2.085283
