19
Iteration:   774
 C        -0.000908        -0.221274        -0.196646
 C         1.498638         0.039229         0.073676
 C         2.246852         1.312735         0.451508
 C         3.430829         0.520808         1.034047
 C         4.025961        -0.559752        -0.015194
 C         3.507766        -0.348690        -1.368517
 O         2.019395        -0.390247        -1.303356
 O         3.235273        -1.668184         0.674189
 C         2.413320        -0.702497         1.215702
 H        -0.650994         0.217372         0.633123
 H        -0.437700         0.110459        -1.108802
 H         0.085905        -1.303831        -0.258296
 H         2.289831         2.068301        -0.461607
 H         1.832700         1.786847         1.395462
 H         4.048431         1.032907         1.807544
 H         5.088942        -0.864763        -0.019057
 H         3.832579         0.532574        -1.775798
 H         3.928381        -1.150849        -1.893338
 H         1.896823        -0.898354         2.220257
