19
Iteration:  3381charge 0 multiplicity 1
 C         0.039430        -0.127030        -0.107323
 C         1.478700        -0.020477         0.048098
 C         2.234787         1.324153         0.463841
 C         3.332477         0.472280         1.073376
 C         4.076243        -0.473086        -0.022294
 C         3.494343        -0.386501        -1.436729
 O         2.029379        -0.355585        -1.220716
 O         3.307592        -1.679023         0.587169
 C         2.397442        -0.796437         1.188086
 H        -0.543624         0.668418         0.538767
 H        -0.127383         0.195450        -1.247400
 H        -0.390608        -1.104448         0.062806
 H         2.546412         1.920142        -0.350541
 H         1.658414         1.918533         1.142607
 H         3.836093         0.692294         1.985714
 H         5.070645        -0.740490         0.121765
 H         3.776984         0.545423        -1.958906
 H         3.722828        -1.337286        -1.943020
 H         1.881370        -1.037625         2.108548
