19
Iteration:  4409charge 0 multiplicity 1
 C         0.046752        -0.040243        -0.054239
 C         1.569437         0.033439        -0.110693
 C         2.270912         1.305739         0.540248
 C         3.296079         0.403110         1.113293
 C         4.000512        -0.464916         0.053822
 C         3.405332        -0.337482        -1.350333
 O         1.980203        -0.522957        -1.299682
 O         3.392791        -1.665701         0.533291
 C         2.419420        -0.740099         1.115588
 H        -0.405935         0.884127        -0.336944
 H        -0.384613        -0.863190        -0.659692
 H        -0.251918        -0.221884         1.051366
 H         2.334069         2.030712        -0.345324
 H         1.698581         1.881695         1.372638
 H         3.972327         0.610122         1.985848
 H         5.084755        -0.490418         0.195337
 H         3.582771         0.569983        -1.943361
 H         3.855312        -1.161179        -1.996499
 H         1.909928        -1.060027         2.046500
