19
Iteration:  2063charge 0 multiplicity 1
 C         0.027559        -0.057385        -0.060544
 C         1.571043         0.027977         0.005070
 C         2.232016         1.325966         0.409615
 C         3.347700         0.443138         1.103074
 C         4.016631        -0.488032        -0.012404
 C         3.372280        -0.367511        -1.357166
 O         2.040847        -0.394164        -1.332083
 O         3.366505        -1.752557         0.725215
 C         2.399558        -0.774378         1.105053
 H        -0.621265        -0.327133         0.850561
 H        -0.378005         0.811678        -0.423126
 H        -0.114048        -0.882291        -0.739390
 H         2.478058         1.918958        -0.532772
 H         1.756000         1.830626         1.214473
 H         3.799252         0.786957         1.977661
 H         5.159805        -0.557790        -0.023795
 H         3.756399         0.681118        -1.909575
 H         3.738066        -1.103435        -2.125543
 H         1.772048        -1.051352         1.919424
