19
Iteration:  1891
 C        -0.070781         0.039834        -0.104246
 C         1.473459         0.022459        -0.020512
 C         2.242730         1.318580         0.378826
 C         3.258141         0.415850         1.014293
 C         4.130176        -0.487147         0.116271
 C         3.473959        -0.376865        -1.326597
 O         2.007923        -0.485774        -1.290682
 O         3.438814        -1.716081         0.660347
 C         2.399687        -0.812154         1.161010
 H        -0.592730        -0.042213         0.886077
 H        -0.413402         0.850239        -0.666071
 H        -0.357446        -0.842791        -0.679618
 H         2.518024         2.069441        -0.408606
 H         1.696751         1.849141         1.146336
 H         3.796642         0.943437         1.829216
 H         5.219317        -0.453921         0.057027
 H         3.688977         0.584098        -1.913445
 H         3.922618        -1.035820        -2.090357
 H         1.950394        -1.067604         2.105892
