19
Iteration:  3926charge 0 multiplicity 1
 C        -0.014718        -0.029357        -0.112775
 C         1.483045        -0.007716         0.106579
 C         2.193384         1.306925         0.421687
 C         3.337188         0.423670         1.060591
 C         4.108385        -0.568503         0.067779
 C         3.450384        -0.231725        -1.368048
 O         2.069678        -0.480853        -1.279994
 O         3.337409        -1.705095         0.510603
 C         2.415152        -0.779515         1.186660
 H        -0.427669         0.178310        -1.162202
 H        -0.472478        -0.978694         0.360520
 H        -0.429243         0.715436         0.554805
 H         2.485667         1.966429        -0.346298
 H         1.733778         1.954491         1.148493
 H         3.859931         0.678917         1.997333
 H         5.188297        -0.811668         0.027000
 H         3.520264         0.849235        -1.700840
 H         3.765636        -0.781780        -2.325401
 H         2.054444        -1.088388         2.211225
