19
Iteration:   811charge 0 multiplicity 1
 C         0.026913        -0.063277        -0.123757
 C         1.509536         0.045246         0.050469
 C         2.149541         1.382629         0.453995
 C         3.333116         0.479853         1.043111
 C         4.060567        -0.486623         0.016980
 C         3.466741        -0.441806        -1.366562
 O         2.047243        -0.462321        -1.311407
 O         3.401302        -1.715964         0.714023
 C         2.360384        -0.746980         1.098176
 H        -0.517735         0.062825         0.812420
 H        -0.289549         0.535577        -1.044741
 H        -0.266066        -1.147749        -0.211617
 H         2.347567         2.040582        -0.373828
 H         1.625497         2.028932         1.235164
 H         3.914886         0.850529         1.918497
 H         5.224512        -0.617528        -0.065295
 H         3.813461         0.561277        -1.765790
 H         3.788944        -1.241596        -2.059723
 H         1.765741        -1.170721         1.854014
