19
Iteration:  4399
 C         0.077711         0.017665        -0.062728
 C         1.566111        -0.022251         0.047236
 C         2.228271         1.264687         0.486529
 C         3.329266         0.444234         1.116852
 C         4.018619        -0.443089        -0.015184
 C         3.380372        -0.260622        -1.433742
 O         2.016948        -0.545397        -1.299205
 O         3.363862        -1.677776         0.576892
 C         2.364817        -0.827340         1.180181
 H        -0.234468         0.932362        -0.590899
 H        -0.138566        -0.860582        -0.722320
 H        -0.457989         0.042797         0.920543
 H         2.663420         1.964171        -0.309136
 H         1.507856         1.818363         1.212532
 H         3.916785         0.867611         1.993644
 H         5.129789        -0.457625        -0.092634
 H         3.646572         0.693608        -1.871727
 H         3.854623        -1.113548        -2.077519
 H         1.898918        -1.323053         2.071208
