19
Iteration:  2171
 C         0.035615         0.020277        -0.136484
 C         1.531488         0.026016         0.021644
 C         2.200810         1.283921         0.461085
 C         3.346544         0.491387         1.073616
 C         4.002137        -0.510760         0.006700
 C         3.470784        -0.389964        -1.399350
 O         1.958267        -0.409791        -1.258478
 O         3.399307        -1.706985         0.638001
 C         2.400949        -0.858964         1.177331
 H        -0.538933         0.592151         0.689417
 H        -0.137848         0.283696        -1.153490
 H        -0.266221        -1.022116        -0.206553
 H         2.376071         2.192426        -0.266903
 H         1.586811         1.858117         1.160427
 H         3.995175         0.772376         1.820261
 H         5.150200        -0.467867         0.034144
 H         3.934549         0.566335        -1.809684
 H         3.793846        -1.236863        -2.068494
 H         1.986132        -1.335926         2.083656
