19
Iteration:  3776
 C        -0.025663         0.049478         0.000534
 C         1.503403        -0.012342        -0.006012
 C         2.179208         1.376240         0.368532
 C         3.285730         0.453593         1.032282
 C         4.029593        -0.539555         0.039722
 C         3.563872        -0.368989        -1.315769
 O         2.012483        -0.474134        -1.280036
 O         3.446310        -1.714745         0.622633
 C         2.378138        -0.840414         1.076348
 H        -0.415189         0.909838         0.514535
 H        -0.464192        -0.027904        -0.962951
 H        -0.459007        -0.889603         0.641349
 H         2.483443         1.988348        -0.541149
 H         1.510057         1.960671         1.124474
 H         3.894214         1.020573         1.666830
 H         5.083972        -0.642946         0.205402
 H         3.833828         0.611265        -1.532210
 H         3.787299        -1.078334        -2.125991
 H         1.901025        -1.173518         1.984769
