19
Iteration:   815charge 0 multiplicity 1
 C         0.011289        -0.057104        -0.083837
 C         1.494600         0.060091         0.021159
 C         2.141519         1.367580         0.439975
 C         3.335321         0.466860         1.045042
 C         4.100255        -0.471778         0.048671
 C         3.469534        -0.452963        -1.357025
 O         2.056643        -0.467276        -1.317641
 O         3.401035        -1.701208         0.691563
 C         2.350964        -0.757202         1.098561
 H        -0.509748         0.178057         0.834698
 H        -0.351356         0.538134        -0.897963
 H        -0.242424        -1.083568        -0.285245
 H         2.360608         1.958273        -0.447588
 H         1.654003         1.952843         1.136149
 H         3.947396         0.785123         1.845194
 H         5.124123        -0.480200         0.037047
 H         3.830030         0.593985        -1.748654
 H         3.785163        -1.285596        -2.068496
 H         1.704003        -1.248918         1.871181
