19
Iteration:  2370charge 0 multiplicity 1
 C         0.057861        -0.149260        -0.051395
 C         1.590822        -0.006781         0.048908
 C         2.182960         1.421200         0.454043
 C         3.345585         0.484282         1.083095
 C         3.933837        -0.525047        -0.015821
 C         3.532254        -0.391549        -1.446439
 O         2.066438        -0.415772        -1.336376
 O         3.211789        -1.713057         0.651537
 C         2.435447        -0.707921         1.155709
 H        -0.446449         0.047496         0.962160
 H        -0.255951         0.676657        -0.707964
 H        -0.097699        -1.229767        -0.353812
 H         2.500423         2.082466        -0.347435
 H         1.619578         1.729900         1.287799
 H         3.999593         0.667047         1.880438
 H         5.057713        -0.563846         0.222243
 H         4.094272         0.499037        -1.828641
 H         3.787091        -1.281459        -2.096346
 H         1.803029        -0.984720         2.005279
