19
Iteration:  1712
 C        -0.034102        -0.036165        -0.028232
 C         1.498604        -0.057166        -0.131853
 C         2.316084         1.312679         0.371387
 C         3.335514         0.499771         1.023570
 C         4.002247        -0.516847         0.058003
 C         3.505675        -0.330014        -1.258918
 O         2.070315        -0.532317        -1.300992
 O         3.319233        -1.630225         0.691088
 C         2.352959        -0.763312         1.133366
 H        -0.426735        -0.071455         1.010152
 H        -0.444556         0.812211        -0.477574
 H        -0.331096        -0.894361        -0.641825
 H         2.612071         2.096738        -0.392338
 H         1.689142         1.763667         1.113252
 H         3.882941         0.880108         1.896466
 H         5.115242        -0.706472        -0.058954
 H         3.663824         0.745201        -1.703085
 H         3.902329        -1.012327        -2.145370
 H         1.844292        -1.244949         1.957753
