19
Iteration:  4228
 C        -0.085904         0.076488        -0.012906
 C         1.430979         0.054532        -0.062408
 C         2.262602         1.270305         0.415892
 C         3.267241         0.469604         1.077107
 C         4.049264        -0.453529         0.032424
 C         3.507015        -0.364777        -1.404536
 O         2.031432        -0.503410        -1.241124
 O         3.512311        -1.693259         0.580314
 C         2.370512        -0.902133         1.179887
 H        -0.423992         1.157092        -0.338369
 H        -0.576772        -0.735619        -0.776614
 H        -0.354263        -0.216479         0.973738
 H         2.571595         1.934350        -0.471501
 H         1.703853         1.923198         1.118357
 H         3.607973         0.838007         2.134362
 H         5.214314        -0.356365         0.041507
 H         3.960587         0.577889        -1.916987
 H         3.694216        -1.212486        -2.043897
 H         1.750888        -1.494596         1.953166
