19
Iteration:  2577
 C        -0.032098        -0.032700        -0.031392
 C         1.528192         0.046837        -0.093973
 C         2.315936         1.354226         0.345743
 C         3.318400         0.457957         1.110631
 C         4.081128        -0.584114         0.108490
 C         3.430863        -0.291578        -1.353040
 O         1.973594        -0.481108        -1.322463
 O         3.387562        -1.707727         0.647763
 C         2.359705        -0.782665         1.126093
 H        -0.572495        -0.110246         0.988709
 H        -0.401244         0.823567        -0.447100
 H        -0.308972        -0.992668        -0.559656
 H         2.667742         2.065517        -0.445050
 H         1.638253         1.858803         1.080783
 H         3.953800         0.633850         1.927324
 H         5.194915        -0.552595         0.345500
 H         3.694858         0.687493        -1.649240
 H         4.011868        -0.981439        -2.040314
 H         1.779778        -1.349846         1.847093
