19
Iteration:  1316charge 0 multiplicity 1
 C         0.005292        -0.077733        -0.110554
 C         1.492539        -0.000143        -0.077568
 C         2.229618         1.342322         0.453105
 C         3.301993         0.464543         1.076576
 C         4.072578        -0.541896         0.046578
 C         3.431809        -0.442786        -1.336921
 O         2.000032        -0.387969        -1.322315
 O         3.446345        -1.696745         0.696374
 C         2.376373        -0.727814         1.124385
 H        -0.358533         0.151823         0.941067
 H        -0.444827         0.850874        -0.755200
 H        -0.430601        -1.052024        -0.502070
 H         2.508960         2.072349        -0.296043
 H         1.665391         1.951226         1.235203
 H         3.994205         0.858843         1.856920
 H         5.234673        -0.506598         0.129606
 H         3.876575         0.329811        -1.881368
 H         3.618739        -1.365642        -1.962409
 H         1.736533        -1.056042         1.948708
