19
Iteration:  4098
 C         0.019409         0.014638        -0.003988
 C         1.456079         0.028445        -0.062226
 C         2.220134         1.221013         0.458013
 C         3.321137         0.385250         1.093256
 C         4.037174        -0.516010         0.066859
 C         3.461832        -0.353436        -1.333460
 O         2.016303        -0.435013        -1.304007
 O         3.501516        -1.650266         0.612179
 C         2.318874        -0.799263         1.014452
 H        -0.413926         0.559232        -0.887326
 H        -0.469283        -0.990368         0.034092
 H        -0.173807         0.593042         0.804980
 H         2.311184         2.118227        -0.329943
 H         1.555222         1.527977         1.328704
 H         3.789974         1.010208         1.940604
 H         5.159046        -0.612162        -0.085297
 H         3.741045         0.706233        -1.712972
 H         3.882790        -1.097440        -1.960731
 H         1.785268        -1.144084         1.945281
