19
Iteration:  3361
 C        -0.007796         0.006696        -0.124650
 C         1.499559         0.005604        -0.018965
 C         2.217997         1.304887         0.473091
 C         3.368919         0.477719         1.080143
 C         3.992111        -0.543595         0.048986
 C         3.424160        -0.309228        -1.325199
 O         2.011103        -0.523655        -1.324290
 O         3.435124        -1.706577         0.589692
 C         2.432497        -0.747264         1.173655
 H        -0.457923         0.607608         0.752965
 H        -0.452501         0.463151        -1.041323
 H        -0.460709        -1.015544        -0.234340
 H         2.227844         2.140539        -0.230698
 H         1.596064         1.665973         1.322151
 H         4.076689         0.845363         1.770979
 H         5.128122        -0.480652         0.113726
 H         3.904227         0.569007        -1.619319
 H         3.788621        -1.167645        -1.934453
 H         1.847570        -1.208248         1.972988
