19
Iteration:  4288
 C        -0.007484        -0.215045        -0.047861
 C         1.533459         0.001261         0.018518
 C         2.248778         1.369368         0.478576
 C         3.380678         0.376585         0.992544
 C         4.035031        -0.581016        -0.025462
 C         3.511627        -0.287791        -1.380887
 O         2.044524        -0.316155        -1.276607
 O         3.276349        -1.694839         0.670470
 C         2.377998        -0.721413         1.119225
 H        -0.426493         0.429364        -0.762715
 H        -0.218272        -1.234871        -0.244542
 H        -0.584574         0.017028         0.926996
 H         2.286691         2.006157        -0.474434
 H         1.859379         1.992854         1.354887
 H         3.840400         0.597454         1.919902
 H         5.095313        -0.587176        -0.126842
 H         3.906800         0.639316        -1.670830
 H         3.797692        -0.951577        -2.269482
 H         1.811964        -0.955853         1.996737
