19
Iteration:  3791
 C        -0.049898         0.026252         0.001053
 C         1.514288        -0.022344        -0.079741
 C         2.226873         1.298714         0.385973
 C         3.333063         0.488086         1.081005
 C         4.100549        -0.530299         0.083094
 C         3.414568        -0.275319        -1.346690
 O         2.052788        -0.566141        -1.317512
 O         3.381752        -1.698443         0.627339
 C         2.401873        -0.771423         1.134546
 H        -0.293236         1.068008         0.298273
 H        -0.431862        -0.066134        -1.035593
 H        -0.554100        -0.649474         0.727410
 H         2.555508         1.933164        -0.402369
 H         1.697541         1.808767         1.135236
 H         3.894137         0.592359         2.065192
 H         5.209903        -0.471623        -0.008499
 H         3.537238         0.742028        -1.932086
 H         3.878115        -0.976778        -2.013212
 H         1.725004        -1.240089         1.902973
