19
Iteration:    39
 C        -0.031247        -0.080732        -0.070047
 C         1.489231         0.005301        -0.071650
 C         2.163958         1.221934         0.497880
 C         3.294879         0.433284         1.019093
 C         3.973219        -0.459527         0.012970
 C         3.460443        -0.542988        -1.388927
 O         2.071987        -0.229418        -1.414845
 O         3.467848        -1.605055         0.725849
 C         2.430745        -0.809096         1.209206
 H        -0.296125        -0.048569         1.048002
 H        -0.627606         0.681108        -0.664498
 H        -0.364234        -1.105738        -0.496561
 H         2.494482         2.198748        -0.216682
 H         1.714427         1.550648         1.498953
 H         4.033286         0.920603         1.731023
 H         5.079176        -0.350045         0.078506
 H         4.035095         0.223273        -2.046332
 H         3.561335        -1.680196        -1.689778
 H         1.824656        -1.168402         2.080344
