19
Iteration:  2521charge 0 multiplicity 1
 C        -0.016485        -0.182465        -0.100569
 C         1.499577         0.142946        -0.060088
 C         2.204727         1.327950         0.550301
 C         3.319892         0.522132         1.112195
 C         4.123647        -0.671817        -0.046619
 C         3.482666        -0.454307        -1.372620
 O         2.059307        -0.326463        -1.321921
 O         3.295029        -1.716826         0.631368
 C         2.388985        -0.627577         1.169007
 H        -0.321139         0.306723         0.912399
 H        -0.401043         0.138561        -0.950429
 H        -0.110851        -1.293836        -0.268610
 H         2.337015         2.173340        -0.129533
 H         1.548107         1.908344         1.248825
 H         3.933991         0.729666         1.956416
 H         5.247795        -0.836429        -0.084424
 H         3.859131         0.435751        -1.875345
 H         3.754882        -1.401504        -2.024288
 H         1.908340        -1.064576         2.049307
