19
Iteration:    38charge 0 multiplicity 1
 C        -0.028852        -0.077453        -0.073636
 C         1.493555         0.005737        -0.070877
 C         2.159340         1.219427         0.504881
 C         3.292054         0.435140         1.013383
 C         3.981033        -0.459774         0.020753
 C         3.461922        -0.548296        -1.383041
 O         2.069381        -0.226278        -1.413182
 O         3.471598        -1.604632         0.723318
 C         2.425698        -0.812009         1.203355
 H        -0.306222        -0.051200         1.077334
 H        -0.663349         0.694106        -0.660184
 H        -0.346611        -1.076283        -0.457482
 H         2.482660         2.195015        -0.242659
 H         1.710305         1.563442         1.468071
 H         4.008546         0.911753         1.679366
 H         5.043712        -0.353933         0.082704
 H         4.034758         0.220502        -2.035751
 H         3.580066        -1.696936        -1.719183
 H         1.850504        -1.177195         2.069543
