19
Iteration:   712
 C         0.035604        -0.015755         0.006480
 C         1.536205        -0.082480        -0.107654
 C         2.255940         1.313604         0.375486
 C         3.214500         0.430201         1.133692
 C         4.037882        -0.409125         0.082749
 C         3.506068        -0.405290        -1.334088
 O         2.030723        -0.468615        -1.390157
 O         3.399827        -1.663951         0.677619
 C         2.326129        -0.784869         1.119169
 H        -0.073161         0.183229         1.112778
 H        -0.532424         0.890087        -0.364137
 H        -0.528027        -0.973079        -0.301930
 H         2.584594         1.834510        -0.447928
 H         1.559917         1.933985         1.000330
 H         3.846047         0.734021         2.051503
 H         5.196694        -0.487411        -0.040241
 H         3.821452         0.684405        -1.789244
 H         3.956786        -0.950289        -2.259231
 H         1.795123        -1.210263         1.932688
