19
Iteration:  4331
 C         0.151744        -0.210191         0.029669
 C         1.542854        -0.027855         0.008489
 C         2.241135         1.347848         0.560433
 C         3.261138         0.436583         1.154714
 C         3.986781        -0.469782        -0.038724
 C         3.464893        -0.395042        -1.424160
 O         2.061091        -0.273183        -1.401903
 O         3.296019        -1.688584         0.571412
 C         2.325651        -0.749174         1.116046
 H        -0.278229        -0.156723        -0.943958
 H        -0.016708        -1.153159         0.462496
 H        -0.270938         0.665595         0.671510
 H         2.662922         2.080599        -0.235204
 H         1.654995         1.897927         1.362187
 H         3.962489         0.667571         1.906365
 H         5.006854        -0.746831         0.005265
 H         3.864584         0.416744        -2.012586
 H         3.765868        -1.344021        -1.938747
 H         1.703679        -1.042440         1.932970
