19
Iteration:  3404charge 0 multiplicity 1
 C         0.027789        -0.232202        -0.027666
 C         1.510719         0.083861        -0.037442
 C         2.254786         1.392717         0.437664
 C         3.405649         0.452832         1.053659
 C         4.013355        -0.562776         0.038702
 C         3.461349        -0.399110        -1.305934
 O         2.050560        -0.284066        -1.327265
 O         3.294650        -1.706321         0.595314
 C         2.350692        -0.756198         1.135786
 H        -0.687886         0.360208         0.677718
 H        -0.352239        -0.137560        -1.111969
 H        -0.019291        -1.335127         0.285971
 H         2.508172         2.088290        -0.342172
 H         1.711065         1.922330         1.226791
 H         4.075632         0.731365         1.851301
 H         5.091849        -0.750251        -0.006595
 H         3.772153         0.598888        -1.655426
 H         3.837440        -1.250217        -1.920950
 H         1.710009        -1.045309         1.972453
