19
Iteration:  1694charge 0 multiplicity 1
 C        -0.005827        -0.084800        -0.157276
 C         1.545429         0.068486         0.035843
 C         2.183414         1.386721         0.434727
 C         3.318483         0.438755         1.069665
 C         4.084396        -0.570100         0.044829
 C         3.487846        -0.383967        -1.441839
 O         2.061009        -0.502182        -1.270657
 O         3.356538        -1.746760         0.660244
 C         2.344728        -0.644467         1.168065
 H        -0.385019        -0.122811         0.963380
 H        -0.385855         0.825368        -0.679860
 H        -0.308692        -1.038519        -0.597101
 H         2.253143         2.172630        -0.471164
 H         1.637079         1.955737         1.229625
 H         3.923421         0.863219         1.857551
 H         5.146603        -0.570408         0.248829
 H         3.695768         0.582648        -1.898434
 H         3.854811        -1.212757        -2.039563
 H         1.852330        -0.926934         2.111897
