19
Iteration:  3049
 C        -0.022050        -0.035376        -0.087442
 C         1.559605         0.003011        -0.065536
 C         2.269540         1.347175         0.440675
 C         3.283974         0.409163         1.139632
 C         4.029400        -0.450599         0.023177
 C         3.428558        -0.293059        -1.378061
 O         2.084285        -0.551113        -1.242704
 O         3.348119        -1.676809         0.578989
 C         2.357734        -0.804983         1.147171
 H        -0.376198         0.557261         0.712327
 H        -0.267935         0.608150        -0.996801
 H        -0.413974        -1.083348        -0.021503
 H         2.640995         2.132198        -0.228019
 H         1.637457         1.775251         1.204992
 H         4.109475         0.686251         1.832718
 H         5.071740        -0.440593         0.096448
 H         3.664622         0.766569        -1.805754
 H         3.762200        -1.135148        -2.025795
 H         1.835549        -1.251493         2.020884
