19
Iteration:  2647
 C        -0.034155        -0.161074        -0.087055
 C         1.523774         0.067941        -0.048356
 C         2.239149         1.355357         0.457578
 C         3.330814         0.332843         1.074545
 C         4.082462        -0.525087         0.023594
 C         3.465335        -0.399658        -1.408427
 O         2.030031        -0.294345        -1.238096
 O         3.375150        -1.709825         0.675011
 C         2.326236        -0.718156         1.103450
 H        -0.511228         0.332220         0.663067
 H        -0.221357         0.536216        -1.034133
 H        -0.144759        -1.197380        -0.015636
 H         2.428758         2.121450        -0.332038
 H         1.653116         1.746657         1.284190
 H         4.047229         0.600825         1.906716
 H         5.175739        -0.740876        -0.095863
 H         4.008669         0.501324        -1.920124
 H         3.611927        -1.254360        -2.057278
 H         1.727963        -0.923422         2.035976
