19
Iteration:  4113charge 0 multiplicity 1
 C        -0.013595        -0.056510         0.004504
 C         1.574046        -0.049446        -0.088525
 C         2.210901         1.348875         0.471172
 C         3.347681         0.461667         1.054362
 C         4.107914        -0.510504         0.046858
 C         3.440498        -0.276616        -1.326889
 O         1.968191        -0.384038        -1.406423
 O         3.379814        -1.742882         0.699731
 C         2.389802        -0.822531         1.084011
 H        -0.477125         0.121449        -0.954233
 H        -0.329738        -1.041648         0.248450
 H        -0.455710         0.698408         0.780861
 H         2.466632         2.095031        -0.175744
 H         1.650477         1.736897         1.283072
 H         3.943138         0.572717         1.909158
 H         5.165681        -0.585055         0.108492
 H         3.796743         0.722547        -1.754880
 H         3.735071        -1.093804        -2.074470
 H         1.715234        -1.256698         1.792642
