19
Iteration:   452
 C        -0.016646        -0.169370        -0.040011
 C         1.504324        -0.013283        -0.025569
 C         2.252850         1.353308         0.410905
 C         3.386936         0.473266         1.076958
 C         4.013675        -0.583203         0.089689
 C         3.500935        -0.237066        -1.396035
 O         2.086119        -0.407143        -1.290715
 O         3.318195        -1.683852         0.608454
 C         2.324076        -0.751490         1.138798
 H        -0.327242         0.390701         0.815197
 H        -0.512621         0.246039        -0.923023
 H        -0.290155        -1.223712        -0.148326
 H         2.499470         1.833239        -0.561793
 H         1.760535         1.859700         1.322617
 H         3.930714         0.819267         2.046759
 H         5.129306        -0.811424        -0.066248
 H         3.762776         0.826220        -1.796553
 H         3.762914        -1.009984        -2.020167
 H         1.686425        -1.259053         1.996947
