19
Iteration:  1264
 C        -0.018092        -0.086382        -0.102444
 C         1.481958         0.057375        -0.010244
 C         2.264480         1.361212         0.463483
 C         3.366373         0.458927         1.014714
 C         4.045513        -0.494617         0.044352
 C         3.497261        -0.423633        -1.315513
 O         2.027322        -0.454839        -1.286530
 O         3.352613        -1.669220         0.645127
 C         2.352382        -0.754165         1.085086
 H        -0.562836         0.589466         0.647760
 H        -0.513549         0.128890        -1.047775
 H        -0.196831        -1.171629        -0.006405
 H         2.326931         2.280070        -0.193972
 H         1.706628         1.569137         1.349705
 H         4.021365         0.775314         1.927974
 H         5.158459        -0.689014         0.112475
 H         3.909784         0.518044        -1.882885
 H         3.849083        -1.249759        -1.940552
 H         1.807342        -1.109459         1.947844
