19
Iteration:   976
 C         0.121462        -0.091835         0.062386
 C         1.580447        -0.025601        -0.010248
 C         2.233304         1.355551         0.249569
 C         3.206356         0.479381         1.089123
 C         4.016138        -0.541593         0.148797
 C         3.457439        -0.298766        -1.347016
 O         2.043213        -0.473506        -1.346566
 O         3.360290        -1.709556         0.607472
 C         2.303855        -0.757075         1.125238
 H        -0.192007         0.060451         1.042157
 H        -0.159360         0.671066        -0.759703
 H        -0.256121        -1.122876        -0.149573
 H         2.572543         1.887420        -0.635078
 H         1.702384         2.150611         0.998471
 H         3.620921         0.932239         1.912073
 H         5.196470        -0.659019         0.144503
 H         3.790198         0.696974        -1.646105
 H         3.936983        -1.017156        -2.034839
 H         1.764809        -1.038115         1.943567
