19
Iteration:  4974
 C        -0.000692         0.039216        -0.063888
 C         1.527871        -0.062919         0.027538
 C         2.153448         1.277678         0.457185
 C         3.330701         0.508946         1.036241
 C         3.973835        -0.503635         0.038034
 C         3.430106        -0.306362        -1.328810
 O         2.040208        -0.415696        -1.345555
 O         3.461478        -1.739636         0.602637
 C         2.425258        -0.852745         1.165865
 H         0.075457         0.884795        -0.695618
 H        -0.564266        -0.823433        -0.438025
 H        -0.448243         0.322344         0.974458
 H         2.473063         1.768833        -0.508120
 H         1.556181         1.938887         1.127296
 H         3.793536         0.846509         1.999588
 H         5.065073        -0.706522         0.024372
 H         3.744496         0.714416        -1.707308
 H         3.752890        -1.165605        -2.040627
 H         1.905242        -1.421871         1.969571
