19
Iteration:   104charge 0 multiplicity 1
 C         0.007807        -0.185744         0.003186
 C         1.486202        -0.034518        -0.033321
 C         2.253568         1.237239         0.410407
 C         3.380321         0.499775         1.101316
 C         4.038656        -0.522147         0.064995
 C         3.512009        -0.208936        -1.353568
 O         2.073113        -0.529954        -1.348639
 O         3.207968        -1.650338         0.562885
 C         2.426738        -0.668332         1.179037
 H        -0.435180         0.327394         0.968825
 H        -0.490923         0.458316        -0.799699
 H        -0.421241        -1.288457        -0.013262
 H         2.719418         1.813905        -0.614634
 H         1.800424         2.076856         1.006903
 H         3.943388         0.826900         2.007302
 H         5.075719        -0.744457         0.245177
 H         3.736004         0.899163        -1.545044
 H         3.954219        -0.701181        -2.354645
 H         1.818271        -1.118332         2.009327
