19
Iteration:  1949
 C         0.018223        -0.212644         0.010640
 C         1.552971         0.028898        -0.066616
 C         2.222328         1.364873         0.463891
 C         3.343384         0.462865         1.038145
 C         4.024332        -0.574724         0.004520
 C         3.519379        -0.379835        -1.352011
 O         2.101887        -0.353813        -1.283722
 O         3.230475        -1.671407         0.608144
 C         2.361415        -0.685593         1.104599
 H        -0.398601         0.188768         0.828871
 H        -0.525661         0.280457        -0.841551
 H        -0.114207        -1.287415        -0.004125
 H         2.499781         2.058927        -0.309957
 H         1.538471         1.826169         1.292356
 H         4.090253         0.851328         1.768164
 H         5.043622        -0.869339        -0.078239
 H         3.960939         0.635169        -1.672140
 H         3.872051        -1.289240        -1.786462
 H         1.673376        -0.953789         1.976908
