19
Iteration:  1325
 C        -0.052178        -0.102898        -0.071731
 C         1.512953         0.074919        -0.022719
 C         2.233796         1.422255         0.404133
 C         3.311907         0.446362         1.110370
 C         4.077436        -0.537084        -0.017709
 C         3.500327        -0.439274        -1.366568
 O         2.031776        -0.450820        -1.331052
 O         3.388792        -1.714078         0.695457
 C         2.367504        -0.697889         1.145785
 H        -0.452571        -0.175446         0.882677
 H        -0.454380         0.783170        -0.660610
 H        -0.323037        -1.053330        -0.548656
 H         2.543663         2.167514        -0.278459
 H         1.498987         1.871643         1.204985
 H         3.914163         0.618620         1.967434
 H         5.175222        -0.745806        -0.042586
 H         3.745541         0.575815        -1.739235
 H         3.907578        -1.282269        -2.013835
 H         1.760597        -1.038686         2.024897
