19
Iteration:  2468
 C        -0.099325        -0.052075        -0.010309
 C         1.523639        -0.002470        -0.034687
 C         2.278685         1.408138         0.412045
 C         3.322640         0.490348         1.133788
 C         4.032361        -0.582767         0.074616
 C         3.555502        -0.325793        -1.395048
 O         2.074855        -0.503242        -1.295010
 O         3.325406        -1.659598         0.585378
 C         2.371588        -0.790929         1.102193
 H        -0.361319         0.581992         0.920375
 H        -0.391053         0.459841        -0.955376
 H        -0.518270        -1.101750        -0.092711
 H         2.517242         1.865927        -0.535191
 H         1.540657         1.907792         0.994777
 H         3.844166         0.646427         2.013515
 H         5.160319        -0.819799         0.163697
 H         3.566727         0.787709        -1.624716
 H         3.889166        -1.128275        -2.130104
 H         1.993131        -1.249861         2.013623
