19
Iteration:  4241
 C        -0.051389         0.082517        -0.056788
 C         1.533932        -0.041203         0.015639
 C         2.213110         1.290434         0.437864
 C         3.272699         0.365419         1.116248
 C         4.095298        -0.438268         0.028394
 C         3.459635        -0.308865        -1.398673
 O         2.034972        -0.561738        -1.220359
 O         3.451434        -1.668770         0.571390
 C         2.346274        -0.771565         1.077633
 H        -0.489805         1.110026        -0.298483
 H        -0.390194        -0.647612        -0.835973
 H        -0.569199        -0.212399         0.875445
 H         2.620667         2.002443        -0.408797
 H         1.622186         1.889917         1.181374
 H         3.960792         0.739868         1.898619
 H         5.211968        -0.538495         0.066388
 H         3.523760         0.545544        -2.052363
 H         3.884707        -1.150703        -1.882818
 H         1.875148        -1.119825         2.003681
