19
Iteration:  2022
 C        -0.046499         0.039004        -0.119682
 C         1.457691         0.019737        -0.010274
 C         2.175158         1.320638         0.513822
 C         3.346294         0.474218         1.028257
 C         4.106905        -0.490534         0.032406
 C         3.495516        -0.364468        -1.377152
 O         2.043418        -0.526945        -1.226216
 O         3.378617        -1.722888         0.586042
 C         2.407581        -0.768820         1.114018
 H        -0.582051         0.249117         0.879808
 H        -0.334908         0.869600        -0.806982
 H        -0.350019        -0.950433        -0.547020
 H         2.423147         2.170453        -0.122695
 H         1.542623         1.657514         1.307924
 H         4.021564         0.765688         1.865673
 H         5.194320        -0.453047        -0.038987
 H         3.783894         0.506808        -1.806498
 H         3.747122        -1.292914        -1.855883
 H         1.955206        -1.208648         1.995942
