19
Iteration:   221
 C         0.038505        -0.177246         0.019294
 C         1.542062        -0.023243         0.000820
 C         2.298185         1.299713         0.347076
 C         3.375650         0.481488         1.061850
 C         3.984276        -0.462472         0.065363
 C         3.476707        -0.237711        -1.298191
 O         2.058985        -0.483376        -1.359875
 O         3.225074        -1.728506         0.587745
 C         2.376579        -0.686064         1.136690
 H        -0.335089        -0.313538         1.091085
 H        -0.587993         0.606724        -0.462148
 H        -0.065370        -0.989600        -0.564219
 H         2.627116         1.809953        -0.462635
 H         1.664875         1.902398         1.029490
 H         3.858809         0.678200         2.001213
 H         5.083608        -0.491193         0.020858
 H         3.773320         0.840136        -1.687885
 H         3.993432        -0.991865        -1.843689
 H         1.799047        -0.918743         2.038446
