19
Iteration:   526
 C         0.046842        -0.070132        -0.172338
 C         1.535995        -0.013971         0.012374
 C         2.171934         1.300113         0.480132
 C         3.344004         0.459954         0.975251
 C         4.036106        -0.515345         0.093161
 C         3.360898        -0.293940        -1.333149
 O         2.036121        -0.418367        -1.245933
 O         3.381962        -1.713832         0.624999
 C         2.428119        -0.799458         1.149889
 H        -0.524737         0.008890         0.830947
 H        -0.201610         0.894612        -0.705470
 H        -0.250310        -0.941462        -0.798877
 H         2.333095         2.080115        -0.254388
 H         1.546502         1.887247         1.330353
 H         4.033982         0.948265         1.705390
 H         5.175798        -0.679486         0.091343
 H         3.931549         0.539530        -1.865468
 H         3.695844        -1.189012        -2.081321
 H         1.946918        -1.164812         2.028281
