19
Iteration:  3829
 C         0.013755        -0.114264        -0.093702
 C         1.549121         0.015651         0.048770
 C         2.243439         1.428570         0.443148
 C         3.374702         0.475725         1.115389
 C         4.050511        -0.532508         0.006795
 C         3.415061        -0.347368        -1.374012
 O         2.072648        -0.437746        -1.267276
 O         3.308305        -1.753221         0.579359
 C         2.380490        -0.760066         1.136590
 H        -0.477930         0.844861        -0.201590
 H        -0.217667        -0.704436        -0.966183
 H        -0.455171        -0.657245         0.694403
 H         2.262483         2.139126        -0.409238
 H         1.639976         2.025075         1.212191
 H         3.837834         0.925087         1.934488
 H         5.093588        -0.794396        -0.018916
 H         3.706067         0.634065        -1.876766
 H         3.653064        -1.237397        -2.066474
 H         2.004664        -1.031976         2.116721
