19
Iteration:  4459charge 0 multiplicity 1
 C         0.052215        -0.239857        -0.014661
 C         1.621069        -0.027918        -0.015580
 C         2.222564         1.328658         0.404396
 C         3.367136         0.477896         1.005279
 C         4.026468        -0.596460        -0.018411
 C         3.432325        -0.355856        -1.302054
 O         2.013808        -0.176662        -1.354328
 O         3.254008        -1.753071         0.634259
 C         2.381638        -0.708624         1.227639
 H        -0.386345         0.774433        -0.370905
 H        -0.236966        -1.012480        -0.698865
 H        -0.337979        -0.602072         0.963566
 H         2.477939         2.030819        -0.350908
 H         1.563963         1.742823         1.115688
 H         4.001166         0.770606         1.777133
 H         5.115716        -0.638912        -0.096576
 H         3.941826         0.562630        -1.708855
 H         3.723650        -1.169711        -1.955224
 H         2.070169        -1.031377         2.210702
