19
Iteration:  1888
 C        -0.049174         0.046742        -0.065406
 C         1.477854         0.013282        -0.041708
 C         2.226153         1.312825         0.379164
 C         3.244110         0.425447         1.025538
 C         4.113563        -0.508131         0.096257
 C         3.521937        -0.369534        -1.294602
 O         1.998381        -0.503009        -1.322378
 O         3.420488        -1.696362         0.652483
 C         2.410889        -0.807565         1.168977
 H        -0.683109        -0.039427         0.972415
 H        -0.370458         0.890674        -0.696890
 H        -0.302178        -0.831408        -0.693359
 H         2.553379         2.063257        -0.377690
 H         1.755844         1.905143         1.104225
 H         3.717617         0.938834         1.843020
 H         5.268957        -0.364489         0.003459
 H         3.626609         0.614454        -1.805470
 H         3.879133        -1.126199        -2.125722
 H         1.973365        -1.146989         2.084449
