19
Iteration:  2733charge 0 multiplicity 1
 C         0.071140         0.007288        -0.070803
 C         1.523945        -0.014171        -0.057123
 C         2.269124         1.222462         0.432733
 C         3.311656         0.425775         1.113195
 C         4.063418        -0.445794         0.078182
 C         3.375034        -0.264754        -1.383558
 O         1.993549        -0.472828        -1.299064
 O         3.373504        -1.699047         0.645167
 C         2.407822        -0.810891         1.110276
 H        -0.418822         0.039721         0.851199
 H        -0.363788         0.867485        -0.765247
 H        -0.363869        -0.803925        -0.662166
 H         2.381444         2.049259        -0.334432
 H         1.741336         1.770366         1.206360
 H         3.899102         0.733032         1.992549
 H         5.179052        -0.777634         0.132524
 H         3.698018         0.656831        -1.839428
 H         3.735790        -1.094805        -2.044130
 H         1.838133        -1.054568         2.057278
