19
Iteration:   931charge 0 multiplicity 1
 C         0.034732        -0.194605        -0.114840
 C         1.527801         0.012797         0.022804
 C         2.142796         1.374765         0.479644
 C         3.390900         0.540483         1.015251
 C         4.003694        -0.557575         0.020708
 C         3.542867        -0.496661        -1.368881
 O         1.998124        -0.300401        -1.295381
 O         3.342196        -1.710368         0.676215
 C         2.407759        -0.676439         1.100044
 H        -0.559119         0.289972         0.651574
 H        -0.228300         0.178241        -1.197343
 H        -0.259936        -1.275217        -0.012346
 H         2.332196         2.186222        -0.262028
 H         1.472222         1.837694         1.389044
 H         4.004142         0.695978         1.895897
 H         5.169873        -0.623134         0.166914
 H         4.002064         0.281787        -1.970715
 H         3.665291        -1.493234        -1.797322
 H         1.813790        -0.853851         1.991888
