19
Iteration:  2023charge 0 multiplicity 1
 C        -0.053838         0.040021        -0.118941
 C         1.462574         0.019448        -0.011617
 C         2.178196         1.315763         0.512573
 C         3.347331         0.472393         1.022269
 C         4.099400        -0.487050         0.033136
 C         3.483887        -0.376349        -1.374080
 O         2.057275        -0.524070        -1.224509
 O         3.377603        -1.720904         0.583008
 C         2.415077        -0.766543         1.116101
 H        -0.560652         0.221670         0.860643
 H        -0.347657         0.891107        -0.835069
 H        -0.381071        -0.935555        -0.573781
 H         2.385952         2.174774        -0.102451
 H         1.548263         1.699250         1.340911
 H         4.023168         0.780524         1.887456
 H         5.157644        -0.431892        -0.051433
 H         3.781569         0.514132        -1.769745
 H         3.741894        -1.293027        -1.856047
 H         1.967317        -1.239895         2.015157
