19
Iteration:  3715
 C         0.082390        -0.255383        -0.103959
 C         1.554694         0.088550        -0.004630
 C         2.223072         1.398262         0.421714
 C         3.384493         0.432304         0.966523
 C         4.035822        -0.592093         0.005332
 C         3.477563        -0.386778        -1.353257
 O         2.034222        -0.341010        -1.202960
 O         3.222289        -1.679672         0.701239
 C         2.336134        -0.691938         1.101828
 H        -0.160567        -0.451091         0.950242
 H        -0.632051         0.495190        -0.511783
 H         0.013597        -1.133614        -0.673947
 H         2.365238         2.132787        -0.357184
 H         1.840350         1.944740         1.266994
 H         4.281887         0.683313         1.609895
 H         5.144786        -0.735764         0.002660
 H         3.858411         0.520287        -2.014847
 H         3.654691        -1.281411        -1.945041
 H         1.856436        -0.675366         2.108297
