19
Iteration:  3667charge 0 multiplicity 1
 C         0.028839        -0.002115         0.002726
 C         1.565204        -0.013857        -0.072219
 C         2.231294         1.279623         0.345156
 C         3.278531         0.437922         1.073745
 C         4.016994        -0.473664         0.049965
 C         3.427235        -0.375456        -1.340074
 O         2.063458        -0.500955        -1.260144
 O         3.408057        -1.668551         0.678442
 C         2.341358        -0.780306         1.060953
 H        -0.190915        -0.226099         1.033691
 H        -0.301507         0.985718        -0.101379
 H        -0.479487        -0.669477        -0.756680
 H         2.600379         2.035243        -0.343036
 H         1.763993         1.892410         1.071472
 H         3.718718         0.868703         1.954634
 H         5.092717        -0.471829         0.000659
 H         3.677056         0.645822        -1.907278
 H         3.764538        -1.132707        -2.076213
 H         1.603820        -1.010400         1.795853
