19
Iteration:  2737charge 0 multiplicity 1
 C         0.094294         0.016440        -0.092028
 C         1.515849        -0.011229        -0.033856
 C         2.228676         1.201165         0.418575
 C         3.334232         0.414549         1.126124
 C         4.041589        -0.467406         0.051828
 C         3.411277        -0.287148        -1.379210
 O         1.978570        -0.464374        -1.309409
 O         3.395313        -1.658395         0.672646
 C         2.385691        -0.825469         1.103199
 H        -0.492651         0.079458         0.869200
 H        -0.221558         0.994253        -0.682482
 H        -0.321163        -0.850933        -0.584542
 H         2.491616         1.985416        -0.254724
 H         1.723744         1.766867         1.219663
 H         3.959193         0.720947         1.975117
 H         5.051877        -0.693943         0.164863
 H         3.581542         0.695090        -1.940235
 H         3.698677        -0.994011        -2.104055
 H         1.872201        -1.155311         1.996602
