19
Iteration:  1805
 C         0.092063        -0.194137        -0.143124
 C         1.545707         0.047070         0.046889
 C         2.200969         1.351432         0.434753
 C         3.378057         0.406596         0.972302
 C         3.956967        -0.582891         0.019169
 C         3.543091        -0.399210        -1.386593
 O         2.010506        -0.291955        -1.272783
 O         3.285793        -1.675142         0.708640
 C         2.348029        -0.701863         1.190740
 H        -0.592824         0.342933         0.448180
 H        -0.324719         0.082515        -1.231320
 H         0.004965        -1.306099        -0.003192
 H         2.373712         1.950971        -0.525346
 H         1.615820         1.869089         1.330626
 H         4.163283         0.705170         1.709509
 H         4.999213        -0.619459         0.192219
 H         3.842162         0.565586        -1.988327
 H         3.872495        -1.245421        -1.967332
 H         1.986052        -0.911198         2.262547
