19
Iteration:  2331charge 0 multiplicity 1
 C        -0.003000        -0.062828         0.011939
 C         1.517884         0.016345         0.012131
 C         2.290540         1.386990         0.334772
 C         3.292798         0.463333         1.084637
 C         4.043593        -0.535780         0.104325
 C         3.496313        -0.322159        -1.292547
 O         1.996271        -0.456723        -1.311524
 O         3.394012        -1.791169         0.597979
 C         2.365239        -0.743858         1.027713
 H        -0.355006         0.498169         0.780878
 H        -0.446735         0.309581        -0.959678
 H        -0.433724        -1.020805         0.071279
 H         2.444282         1.963117        -0.646465
 H         1.807511         2.118289         1.064802
 H         3.817889         0.749924         2.108093
 H         5.060320        -0.635850        -0.006614
 H         3.489449         0.755100        -1.584265
 H         4.002555        -1.024546        -1.908982
 H         1.794798        -1.099183         1.906498
