19
Iteration:  4266charge 0 multiplicity 1
 C         0.088415        -0.046646        -0.125085
 C         1.612520        -0.032374        -0.036083
 C         2.243650         1.283868         0.477927
 C         3.338814         0.513456         1.094774
 C         3.994452        -0.573699         0.018299
 C         3.404627        -0.246267        -1.369027
 O         1.984460        -0.483057        -1.297969
 O         3.312781        -1.724800         0.581351
 C         2.416034        -0.740545         1.236932
 H        -0.390600         0.798084        -0.521243
 H        -0.173533        -0.910430        -0.639848
 H        -0.385868        -0.281440         0.885097
 H         2.391450         2.142687        -0.244382
 H         1.683389         1.686168         1.359970
 H         3.963533         1.157738         1.647951
 H         5.048029        -0.743587        -0.052842
 H         3.599322         0.711630        -1.741475
 H         3.916702        -0.955519        -2.086894
 H         1.872063        -1.099734         2.092029
