19
Iteration:  1705charge 0 multiplicity 1
 C        -0.043105        -0.067581        -0.086853
 C         1.511475        -0.008656        -0.094369
 C         2.242573         1.366606         0.397570
 C         3.352476         0.490020         1.025764
 C         4.032452        -0.538456         0.088656
 C         3.495095        -0.335898        -1.378035
 O         2.069239        -0.537937        -1.260989
 O         3.334130        -1.655526         0.685400
 C         2.379331        -0.765062         1.142859
 H        -0.441987        -0.069819         1.014896
 H        -0.549419         0.843843        -0.519711
 H        -0.487294        -0.908100        -0.620596
 H         2.734776         2.153307        -0.335858
 H         1.596382         1.838499         1.179465
 H         4.059424         0.749080         1.806651
 H         5.102731        -0.681354         0.199795
 H         3.865622         0.658192        -1.678690
 H         3.775083        -1.051498        -2.146484
 H         1.712371        -1.054599         1.969074
