19
Iteration:  1830charge 0 multiplicity 1
 C        -0.024336        -0.205364        -0.031036
 C         1.530764         0.011599        -0.064431
 C         2.261941         1.413155         0.386330
 C         3.400924         0.499452         1.093329
 C         4.021471        -0.618350         0.105301
 C         3.459510        -0.377500        -1.318645
 O         2.088985        -0.398311        -1.339886
 O         3.302006        -1.689042         0.614439
 C         2.337687        -0.678418         1.124013
 H        -0.534789         0.290411         0.840237
 H        -0.576928         0.358615        -0.975884
 H        -0.273711        -1.321595        -0.076080
 H         2.553383         1.948487        -0.480657
 H         1.735381         2.089460         1.198458
 H         3.988268         0.911920         1.947009
 H         5.151451        -0.703931         0.097319
 H         3.706663         0.658620        -1.736645
 H         3.833527        -1.179178        -1.978954
 H         1.770442        -1.110909         2.037980
