19
Iteration:  2717
 C        -0.056685        -0.078234        -0.080079
 C         1.535111         0.005825        -0.003087
 C         2.251410         1.412076         0.423115
 C         3.362772         0.445266         1.080577
 C         4.025660        -0.543276         0.030714
 C         3.521009        -0.328383        -1.286241
 O         2.044986        -0.469003        -1.292384
 O         3.328635        -1.757772         0.528029
 C         2.356667        -0.735908         1.153573
 H        -0.431006         0.021274         1.023455
 H        -0.428995         0.751523        -0.535626
 H        -0.339920        -1.114779        -0.348569
 H         2.666663         2.126241        -0.272920
 H         1.569773         1.913631         1.179208
 H         3.965929         0.785636         1.930776
 H         5.065886        -0.413531         0.014937
 H         3.667242         0.715053        -1.725825
 H         3.927867        -1.027176        -2.047050
 H         1.870839        -1.185216         1.989452
