19
Iteration:  2631charge 0 multiplicity 1
 C         0.020186        -0.032231        -0.140903
 C         1.500793        -0.029711         0.046166
 C         2.205532         1.312386         0.487839
 C         3.357405         0.523057         1.037425
 C         4.025995        -0.535212         0.032700
 C         3.458001        -0.396183        -1.334211
 O         2.044188        -0.380314        -1.298933
 O         3.328324        -1.708129         0.569757
 C         2.415171        -0.775149         1.152102
 H        -0.516202         0.392275         0.833392
 H        -0.344916         0.489332        -0.974028
 H        -0.413546        -1.109672        -0.275167
 H         2.478922         1.995954        -0.329390
 H         1.723321         1.783416         1.389816
 H         3.985094         0.779642         1.869576
 H         5.137915        -0.584221         0.152830
 H         3.837109         0.483263        -1.805476
 H         3.855939        -1.359827        -1.812714
 H         1.961491        -1.177674         2.046904
