19
Iteration:  4530charge 0 multiplicity 1
 C         0.022974         0.091567         0.025406
 C         1.498838        -0.112662         0.011138
 C         2.155130         1.220992         0.370485
 C         3.256284         0.349195         1.082610
 C         4.053086        -0.473656         0.003093
 C         3.452881        -0.247437        -1.371475
 O         2.046214        -0.414372        -1.305214
 O         3.439050        -1.667257         0.574755
 C         2.392934        -0.860033         1.163509
 H        -0.113246         0.135769        -1.018062
 H        -0.483407        -0.787405         0.532390
 H        -0.280614         0.940195         0.642194
 H         2.552615         1.867721        -0.483978
 H         1.619390         1.808874         1.186405
 H         3.863616         0.802246         1.959641
 H         5.153648        -0.617693         0.019700
 H         3.805937         0.806406        -1.650874
 H         3.829811        -1.005920        -2.123825
 H         1.766425        -1.186277         2.009027
