19
Iteration:   878
 C        -0.004556        -0.149159        -0.072327
 C         1.508282         0.006497        -0.082399
 C         2.282043         1.373213         0.380775
 C         3.341774         0.505183         1.053014
 C         4.082725        -0.513296         0.031512
 C         3.432533        -0.330090        -1.290455
 O         2.067554        -0.502528        -1.310338
 O         3.322358        -1.710376         0.701638
 C         2.330366        -0.721188         1.111496
 H        -0.214565        -0.005180         0.979581
 H        -0.513017         0.674691        -0.742527
 H        -0.373001        -1.179286        -0.306943
 H         2.478590         2.118443        -0.350048
 H         1.791871         1.918636         1.235688
 H         3.776940         0.836129         1.949246
 H         5.244023        -0.563374        -0.063696
 H         3.710381         0.635162        -1.646818
 H         3.881334        -1.060519        -2.017845
 H         1.764551        -0.948314         1.928212
