19
Iteration:  1864charge 0 multiplicity 1
 C         0.079806        -0.017670         0.008934
 C         1.602735        -0.075063        -0.068804
 C         2.229639         1.280562         0.340330
 C         3.279898         0.460246         1.126177
 C         4.006485        -0.451057         0.135220
 C         3.459814        -0.324030        -1.393068
 O         2.113036        -0.499354        -1.331787
 O         3.306904        -1.684537         0.643792
 C         2.302480        -0.765753         1.103961
 H        -0.029481         0.048706         1.171453
 H        -0.327753         0.966471        -0.505669
 H        -0.548832        -0.895020        -0.323188
 H         2.467691         1.963932        -0.454883
 H         1.480107         1.851961         0.983669
 H         3.860347         0.945501         1.916707
 H         5.159582        -0.519967         0.060535
 H         3.578950         0.609638        -2.018552
 H         3.930201        -1.179654        -2.020295
 H         1.646327        -1.063975         1.970320
