19
Iteration:  1828
 C        -0.028861        -0.214224        -0.030250
 C         1.525630        -0.000654        -0.073545
 C         2.264586         1.395924         0.386789
 C         3.406890         0.513475         1.086237
 C         4.057830        -0.605962         0.089506
 C         3.425400        -0.382196        -1.318867
 O         2.092694        -0.378093        -1.332094
 O         3.286884        -1.707991         0.623525
 C         2.339793        -0.665185         1.140765
 H        -0.538858         0.286762         0.733651
 H        -0.518845         0.312699        -1.003908
 H        -0.286845        -1.312464        -0.105768
 H         2.577157         1.972750        -0.495801
 H         1.803982         2.068554         1.259330
 H         3.941238         0.950971         1.979765
 H         5.127561        -0.713387         0.125463
 H         3.803743         0.647912        -1.778599
 H         3.812081        -1.125308        -1.972408
 H         1.774228        -1.126249         2.032681
