19
Iteration:  4857
 C         0.041441         0.033493        -0.065643
 C         1.560127         0.010692        -0.035329
 C         2.212900         1.262082         0.505257
 C         3.340535         0.428139         1.062913
 C         3.997683        -0.467398         0.008012
 C         3.451012        -0.356143        -1.406903
 O         2.012452        -0.475722        -1.250108
 O         3.417954        -1.674983         0.597993
 C         2.327481        -0.788168         1.132122
 H        -0.219234         0.896846        -0.658621
 H        -0.379431        -0.891032        -0.558071
 H        -0.415122        -0.081814         0.928938
 H         2.488301         2.018187        -0.232807
 H         1.593776         1.607561         1.324604
 H         4.043819         0.611270         1.933072
 H         5.098410        -0.367435         0.057565
 H         3.660149         0.700779        -1.855331
 H         3.909582        -1.138591        -1.969874
 H         1.624415        -1.339178         1.864542
