19
Iteration:  2335charge 0 multiplicity 1
 C        -0.000918        -0.063257         0.001519
 C         1.528250         0.017073         0.017181
 C         2.290491         1.348138         0.310921
 C         3.315894         0.461182         1.094418
 C         4.039010        -0.539704         0.122997
 C         3.509949        -0.331310        -1.259706
 O         1.990118        -0.454522        -1.308786
 O         3.350163        -1.735021         0.594576
 C         2.391137        -0.745087         1.004248
 H        -0.445393         0.468341         0.976497
 H        -0.459908         0.257456        -0.884914
 H        -0.454104        -1.089164         0.082497
 H         2.414100         2.090406        -0.425065
 H         1.795892         2.011303         0.957222
 H         3.818151         0.708287         1.984278
 H         5.173071        -0.619232        -0.000726
 H         3.590535         0.698637        -1.681224
 H         3.946402        -1.021794        -2.073581
 H         1.756855        -1.161171         1.798560
