19
Iteration:  2280charge 0 multiplicity 1
 C         0.044106        -0.065666        -0.123102
 C         1.534650         0.009374         0.017460
 C         2.155313         1.393024         0.523398
 C         3.324368         0.472546         1.019779
 C         4.042164        -0.570951         0.055079
 C         3.485528        -0.419674        -1.369544
 O         2.023670        -0.434755        -1.285068
 O         3.325633        -1.713162         0.574920
 C         2.449840        -0.707297         1.134690
 H        -0.509117         0.360785         0.871124
 H        -0.294110         0.640305        -0.866995
 H        -0.338170        -1.093352        -0.381354
 H         2.504281         2.266256        -0.089293
 H         1.555413         1.633194         1.393855
 H         4.099683         0.683480         1.685244
 H         5.191124        -0.454755         0.098526
 H         3.737088         0.483300        -1.860240
 H         3.644148        -1.457480        -1.802680
 H         1.853018        -0.954279         2.023838
