19
Iteration:  2843
 C        -0.043943        -0.250918        -0.023347
 C         1.537653        -0.020819        -0.030524
 C         2.326467         1.398100         0.477197
 C         3.360014         0.428318         1.034909
 C         4.049710        -0.561981        -0.000826
 C         3.584800        -0.287388        -1.306837
 O         2.015626        -0.321453        -1.324731
 O         3.237944        -1.724887         0.646271
 C         2.347733        -0.691217         1.080496
 H        -0.325739         0.152190         0.876424
 H        -0.565805         0.232543        -0.943281
 H        -0.282794        -1.270573        -0.081543
 H         2.523486         1.928793        -0.471913
 H         1.687164         1.973957         1.152177
 H         3.996702         0.503187         1.920954
 H         5.172708        -0.728105         0.199905
 H         3.919876         0.746991        -1.662935
 H         3.663625        -1.051937        -2.066693
 H         1.666778        -0.832960         1.964028
