19
Iteration:  3585
 C        -0.016844        -0.249893        -0.027961
 C         1.573851         0.036742        -0.075914
 C         2.282947         1.381624         0.427572
 C         3.401977         0.479135         1.005462
 C         3.963126        -0.602833         0.033471
 C         3.516472        -0.307053        -1.369488
 O         2.054147        -0.312272        -1.299564
 O         3.245392        -1.701416         0.644643
 C         2.364819        -0.736620         1.163613
 H        -0.644654         0.298825         0.679746
 H        -0.515160        -0.215955        -1.052785
 H        -0.079918        -1.287407         0.370990
 H         2.683996         2.211895        -0.198671
 H         1.593910         1.672823         1.282489
 H         4.012281         0.685217         1.889281
 H         5.069636        -0.701863         0.035286
 H         3.911356         0.645188        -1.729753
 H         3.797743        -1.175368        -1.970794
 H         1.803790        -0.842716         2.093177
