19
Iteration:  2872
 C         0.071668        -0.038198        -0.085587
 C         1.573222        -0.007151         0.019922
 C         2.221889         1.292525         0.470742
 C         3.293593         0.477434         1.077306
 C         4.009656        -0.513257         0.020008
 C         3.484404        -0.380380        -1.303166
 O         2.003638        -0.391337        -1.311796
 O         3.351397        -1.643786         0.571275
 C         2.372121        -0.817198         1.142166
 H        -0.263479         0.263355         0.989446
 H        -0.226068         0.452513        -0.956921
 H        -0.213817        -1.121501        -0.436180
 H         2.241909         2.062528        -0.342001
 H         1.503283         1.761837         1.144779
 H         3.953041         0.783142         1.904463
 H         5.073729        -0.596786         0.152012
 H         3.949845         0.408147        -1.885645
 H         3.710879        -1.293561        -1.931319
 H         1.735262        -1.239832         1.918935
