19
Iteration:  4396
 C         0.087795         0.033112        -0.074712
 C         1.540742        -0.049712         0.084870
 C         2.223403         1.274318         0.456986
 C         3.339923         0.449006         1.128588
 C         4.018505        -0.436527        -0.027282
 C         3.400750        -0.262403        -1.448609
 O         2.020638        -0.537696        -1.289361
 O         3.362310        -1.678319         0.583936
 C         2.368314        -0.848530         1.189856
 H        -0.170421         0.873634        -0.676710
 H        -0.200666        -0.815633        -0.636011
 H        -0.518280         0.015748         0.908805
 H         2.678915         1.988033        -0.247629
 H         1.529313         1.765990         1.135598
 H         3.911706         0.871414         1.922435
 H         5.085396        -0.499827        -0.142727
 H         3.632943         0.783984        -1.830779
 H         3.774696        -1.035849        -2.060358
 H         1.859391        -1.329970         2.005547
