19
Iteration:  2790
 C        -0.006635        -0.116841        -0.044757
 C         1.515476        -0.032483         0.006529
 C         2.254063         1.328270         0.468097
 C         3.338996         0.452835         1.103593
 C         4.052192        -0.517983         0.024757
 C         3.519179        -0.378348        -1.329616
 O         2.070098        -0.395906        -1.320000
 O         3.331181        -1.631771         0.545978
 C         2.303207        -0.756509         1.113572
 H        -0.524296         0.163933         0.852356
 H        -0.357458         0.690119        -0.827810
 H        -0.211698        -1.106556        -0.277543
 H         2.378852         2.024696        -0.343506
 H         1.819543         1.740282         1.383170
 H         3.980349         0.788354         1.932098
 H         5.132264        -0.796776         0.143439
 H         3.794673         0.510669        -1.805054
 H         3.622445        -1.181334        -1.967913
 H         1.692570        -1.056659         1.990791
