19
Iteration:  4541charge 0 multiplicity 1
 C        -0.086382         0.010941         0.021559
 C         1.528966        -0.045840        -0.000207
 C         2.256167         1.252482         0.391400
 C         3.260632         0.426453         1.036383
 C         4.002052        -0.506535         0.030804
 C         3.461144        -0.213121        -1.377694
 O         2.058642        -0.419462        -1.298015
 O         3.451367        -1.753961         0.654075
 C         2.419984        -0.861342         1.066677
 H        -0.644806         0.214157        -0.866305
 H        -0.775336        -0.792891         0.460634
 H        -0.227675         1.010259         0.457594
 H         2.628207         2.111765        -0.269908
 H         1.666763         1.814242         1.213039
 H         3.806469         0.700094         2.036547
 H         5.112144        -0.421789         0.062521
 H         3.726071         0.815996        -1.852089
 H         3.831250        -0.989533        -2.139441
 H         2.073955        -1.374203         1.977108
