19
Iteration:  1934charge 0 multiplicity 1
 C         0.089334        -0.161763        -0.132159
 C         1.543913         0.070305         0.022255
 C         2.221259         1.356766         0.456873
 C         3.382451         0.507461         1.026955
 C         3.991666        -0.508428         0.059170
 C         3.496036        -0.375882        -1.415251
 O         2.028734        -0.402772        -1.351838
 O         3.257103        -1.765793         0.624427
 C         2.393786        -0.722870         1.236424
 H        -0.382021         0.098338         0.948625
 H        -0.393111         0.396176        -0.900443
 H        -0.140965        -1.238476        -0.284142
 H         2.287696         2.287275        -0.148406
 H         1.751839         1.700686         1.319319
 H         3.974994         0.858589         1.890622
 H         5.045333        -0.572116         0.448083
 H         3.772676         0.562365        -2.014783
 H         3.558669        -1.282949        -2.051475
 H         1.992875        -1.020889         2.180284
