19
Iteration:   557charge 0 multiplicity 1
 C        -0.071772        -0.075892        -0.217420
 C         1.493710        -0.021600         0.040801
 C         2.250846         1.330918         0.543343
 C         3.400118         0.420231         1.042162
 C         3.977720        -0.488050         0.041771
 C         3.428103        -0.250421        -1.380743
 O         2.078410        -0.537550        -1.298076
 O         3.372072        -1.675567         0.623659
 C         2.415763        -0.739416         1.215951
 H        -0.692013        -0.003047         0.746931
 H        -0.202093         0.827816        -0.842392
 H        -0.420405        -0.962566        -0.760288
 H         2.506344         2.042878        -0.214806
 H         1.698754         1.847464         1.329267
 H         4.095751         0.660498         1.801180
 H         5.059849        -0.543231        -0.110615
 H         3.755410         0.643650        -1.811363
 H         3.764062        -1.159645        -2.088285
 H         1.957545        -0.978950         2.120341
