19
Iteration:  4879
 C        -0.022866        -0.138700        -0.009488
 C         1.505662         0.041508        -0.100515
 C         2.218113         1.407675         0.469498
 C         3.342615         0.414138         1.081738
 C         4.066929        -0.577737         0.067879
 C         3.454275        -0.352161        -1.357249
 O         2.012750        -0.328366        -1.369421
 O         3.337556        -1.731610         0.632682
 C         2.418364        -0.782758         1.089336
 H        -0.373593         0.518432        -0.763606
 H        -0.361758        -1.212976        -0.147903
 H        -0.321935         0.018254         1.020505
 H         2.566704         2.157732        -0.249969
 H         1.738006         1.824962         1.344843
 H         3.940691         0.837104         1.934588
 H         5.152856        -0.787627         0.059705
 H         3.761735         0.717310        -1.619833
 H         3.839977        -1.080126        -2.026729
 H         2.114843        -1.097164         2.139850
