19
Iteration:  4270
 C         0.079724        -0.066716        -0.107213
 C         1.600838        -0.002256        -0.009469
 C         2.222876         1.282324         0.459959
 C         3.336458         0.492539         1.087155
 C         4.006585        -0.575765         0.003115
 C         3.395324        -0.239810        -1.398621
 O         2.006597        -0.453513        -1.299654
 O         3.313333        -1.744169         0.608480
 C         2.396633        -0.720684         1.223962
 H        -0.418656         0.792045        -0.631923
 H        -0.211454        -1.097469        -0.575383
 H        -0.366955        -0.302957         0.823799
 H         2.462964         2.112163        -0.132804
 H         1.659789         1.682488         1.290198
 H         4.150797         1.110603         1.624889
 H         5.100308        -0.883298         0.096437
 H         3.657128         0.819709        -1.822011
 H         3.936188        -0.933776        -2.095888
 H         1.910073        -1.096512         2.180103
