19
Iteration:  3436charge 0 multiplicity 1
 C         0.122629        -0.210971         0.061028
 C         1.561217        -0.038188        -0.054151
 C         2.255047         1.356334         0.416745
 C         3.366303         0.426414         1.006102
 C         3.964403        -0.538477         0.032224
 C         3.476170        -0.316732        -1.391861
 O         2.101637        -0.307895        -1.353708
 O         3.264789        -1.715065         0.677578
 C         2.253771        -0.721074         1.144601
 H        -0.258589         0.218183         1.048437
 H        -0.438656         0.298792        -0.801617
 H        -0.168224        -1.210056        -0.105924
 H         2.419507         2.113071        -0.303282
 H         1.682018         1.822440         1.200252
 H         4.052063         0.671154         1.795356
 H         4.982067        -0.763419         0.086058
 H         3.818907         0.753522        -1.729772
 H         3.986608        -1.022838        -2.087761
 H         1.529963        -0.921165         1.943559
