19
Iteration:  3337
 C         0.054585         0.020118        -0.031357
 C         1.549669        -0.058465        -0.008735
 C         2.194684         1.302767         0.411410
 C         3.257222         0.375567         1.096405
 C         4.125315        -0.480716        -0.013840
 C         3.423152        -0.287100        -1.427179
 O         2.050413        -0.528255        -1.303077
 O         3.375649        -1.667538         0.723134
 C         2.352135        -0.763428         1.087286
 H        -0.378010         0.178556         1.053720
 H        -0.426520         0.924646        -0.663371
 H        -0.414776        -0.790461        -0.516946
 H         2.460904         1.996479        -0.350583
 H         1.552884         1.793044         1.125612
 H         3.899859         0.643373         1.919483
 H         5.186872        -0.439721         0.021135
 H         3.706419         0.713222        -1.623815
 H         3.800650        -0.984847        -2.190695
 H         1.780492        -1.135734         1.943861
