19
Iteration:  3625
 C        -0.002557         0.022151        -0.137406
 C         1.503734        -0.050112        -0.008323
 C         2.249132         1.252932         0.444408
 C         3.307690         0.456369         1.069089
 C         4.003038        -0.463264         0.001536
 C         3.417695        -0.345517        -1.369227
 O         2.056442        -0.457998        -1.232958
 O         3.379124        -1.684547         0.623043
 C         2.430207        -0.763408         1.205996
 H        -0.439839         0.528439         0.668186
 H        -0.207555         0.552079        -1.001366
 H        -0.492809        -1.024660        -0.278752
 H         2.417473         1.974947        -0.339296
 H         1.532507         1.675061         1.057321
 H         4.043090         0.824236         1.790069
 H         5.073816        -0.562003         0.080184
 H         3.834360         0.504897        -2.005344
 H         3.718637        -1.159165        -1.979504
 H         2.108092        -1.265344         2.105426
