19
Iteration:  4368
 C        -0.018869         0.019871        -0.125254
 C         1.433182         0.018374         0.061402
 C         2.171931         1.231045         0.472497
 C         3.396272         0.407044         0.975768
 C         4.099134        -0.538269         0.030159
 C         3.399671        -0.203225        -1.297921
 O         2.032552        -0.459262        -1.260846
 O         3.413653        -1.757224         0.552801
 C         2.428258        -0.795215         1.167107
 H        -0.299250         0.423007        -1.143663
 H        -0.563059        -1.019491        -0.047315
 H        -0.512746         0.521433         0.647175
 H         2.532254         1.926803        -0.297151
 H         1.628415         1.885712         1.208910
 H         3.811217         0.896433         1.921454
 H         5.214796        -0.500941        -0.164784
 H         3.695680         0.812195        -1.555421
 H         3.751981        -1.007191        -2.077038
 H         2.151993        -1.078915         2.236708
