19
Iteration:  3758charge 0 multiplicity 1
 C         0.030685        -0.093680        -0.010493
 C         1.518043        -0.016408        -0.012307
 C         2.218389         1.265968         0.369282
 C         3.338850         0.417280         1.009546
 C         4.057777        -0.478027         0.066635
 C         3.425597        -0.385801        -1.410540
 O         2.059279        -0.350534        -1.299851
 O         3.338447        -1.690791         0.649524
 C         2.372587        -0.708135         1.181918
 H        -0.350666         0.702516         0.618814
 H        -0.333518         0.097868        -1.020839
 H        -0.400762        -1.071033         0.252068
 H         2.426611         1.997811        -0.378664
 H         1.732723         1.831680         1.084498
 H         3.835616         0.716408         1.987329
 H         5.172340        -0.589726         0.103315
 H         3.921319         0.495489        -2.011467
 H         3.747706        -1.323221        -1.781079
 H         1.805654        -1.129628         2.027788
