19
Iteration:  4531
 C         0.012418         0.091294         0.030029
 C         1.501041        -0.110248         0.014022
 C         2.155840         1.219964         0.362407
 C         3.252224         0.348676         1.080357
 C         4.047862        -0.474776         0.002943
 C         3.450033        -0.239931        -1.373863
 O         2.052108        -0.413368        -1.303891
 O         3.441052        -1.670702         0.582219
 C         2.399592        -0.859207         1.156937
 H        -0.136335         0.131848        -1.027273
 H        -0.506023        -0.775610         0.530147
 H        -0.253123         0.915508         0.617319
 H         2.587087         1.892676        -0.453028
 H         1.641471         1.806767         1.205293
 H         3.840832         0.789233         1.958011
 H         5.149092        -0.620036         0.026124
 H         3.808209         0.789303        -1.648639
 H         3.829335        -1.024186        -2.137198
 H         1.784614        -1.195854         2.004611
