19
Iteration:  2888charge 0 multiplicity 1
 C         0.030464        -0.021576        -0.106910
 C         1.556855        -0.048649         0.014245
 C         2.168127         1.309214         0.495559
 C         3.316918         0.436396         1.101783
 C         4.038753        -0.421225         0.078347
 C         3.424989        -0.392758        -1.400328
 O         2.041777        -0.458414        -1.353546
 O         3.401253        -1.724211         0.628252
 C         2.395956        -0.754316         1.123346
 H        -0.336999         0.334021         0.810781
 H        -0.181898         0.928126        -0.790233
 H        -0.575618        -0.758534        -0.523461
 H         2.599538         1.986377        -0.235143
 H         1.578498         1.728678         1.341780
 H         3.809103         0.730784         2.049234
 H         5.191996        -0.455618        -0.011373
 H         3.550421         0.631452        -1.993997
 H         3.727090        -1.306838        -1.933876
 H         1.831621        -1.109148         2.023402
