19
Iteration:  4978charge 0 multiplicity 1
 C        -0.003718         0.053541        -0.037313
 C         1.522983        -0.083859         0.052500
 C         2.164801         1.269813         0.423684
 C         3.340733         0.468480         1.031018
 C         4.038709        -0.454039         0.051328
 C         3.405658        -0.293185        -1.319752
 O         2.016071        -0.433229        -1.346195
 O         3.443627        -1.720932         0.614940
 C         2.436801        -0.865659         1.141518
 H        -0.086373         0.899688        -0.740302
 H        -0.660911        -0.678524        -0.629714
 H        -0.318249         0.284424         0.914859
 H         2.419367         1.802828        -0.516015
 H         1.557470         1.881759         1.098313
 H         3.755814         0.802756         1.992572
 H         5.105877        -0.628922         0.108738
 H         3.961361         0.549379        -1.709858
 H         3.723710        -1.050907        -1.988489
 H         1.782062        -1.462085         1.861437
