19
Iteration:  1484
 C         0.165036        -0.180494        -0.018600
 C         1.559480         0.036123        -0.073148
 C         2.301500         1.328232         0.405682
 C         3.303419         0.444339         1.084522
 C         3.944763        -0.535730         0.013442
 C         3.477729        -0.245015        -1.353261
 O         2.080121        -0.491388        -1.333841
 O         3.224526        -1.714561         0.650982
 C         2.283037        -0.658833         1.170798
 H        -0.310278         0.262413         0.997243
 H        -0.394087         0.250036        -0.848661
 H        -0.088071        -1.288123         0.031145
 H         2.676491         1.863166        -0.511918
 H         1.874390         2.073736         0.972412
 H         3.976699         0.636123         1.933747
 H         5.026403        -0.669878         0.028560
 H         3.788249         0.852667        -1.710590
 H         3.782494        -0.989481        -2.030188
 H         1.831887        -0.882750         2.114641
