19
Iteration:  4540charge 0 multiplicity 1
 C        -0.076832         0.015265         0.024033
 C         1.529710        -0.052442         0.008142
 C         2.241610         1.244896         0.380037
 C         3.254053         0.417813         1.038915
 C         4.002592        -0.504062         0.027245
 C         3.458531        -0.215522        -1.380932
 O         2.063040        -0.417707        -1.297594
 O         3.449941        -1.744882         0.650340
 C         2.422814        -0.859606         1.072118
 H        -0.609178         0.203609        -0.892714
 H        -0.771050        -0.788802         0.451194
 H        -0.213965         1.065673         0.489370
 H         2.642784         2.096203        -0.248462
 H         1.697655         1.801249         1.198689
 H         3.794556         0.699373         2.040203
 H         5.110380        -0.444444         0.060890
 H         3.744343         0.823223        -1.843911
 H         3.810921        -0.967791        -2.113311
 H         2.063613        -1.373213         1.982775
