19
Iteration:   809charge 0 multiplicity 1
 C         0.034152        -0.073203        -0.148898
 C         1.519497         0.030721         0.055537
 C         2.160309         1.385070         0.463864
 C         3.326357         0.487553         1.041897
 C         4.039725        -0.503331         0.001685
 C         3.466513        -0.426881        -1.373184
 O         2.039463        -0.456862        -1.304037
 O         3.400624        -1.717266         0.722020
 C         2.372903        -0.739423         1.096854
 H        -0.543140         0.079362         0.837647
 H        -0.258861         0.503740        -1.054174
 H        -0.256390        -1.167882        -0.222948
 H         2.366970         2.132757        -0.395893
 H         1.609743         2.032550         1.291679
 H         3.909513         0.880643         1.960034
 H         5.217809        -0.674668        -0.090515
 H         3.795902         0.492116        -1.785871
 H         3.790165        -1.196652        -2.020028
 H         1.758975        -1.144110         1.948226
