19
Iteration:  4030charge 0 multiplicity 1
 C        -0.038624        -0.206702        -0.063347
 C         1.537850         0.078905        -0.027568
 C         2.249800         1.379251         0.513095
 C         3.372040         0.503340         1.046016
 C         4.025679        -0.614904         0.027937
 C         3.468900        -0.300960        -1.418230
 O         2.071557        -0.390399        -1.344343
 O         3.319267        -1.755738         0.696738
 C         2.380379        -0.729240         1.102263
 H        -0.624704         0.696383        -0.043173
 H        -0.415998        -0.880796        -0.857189
 H        -0.322526        -0.691181         0.889750
 H         2.284539         2.048754        -0.480042
 H         1.914820         1.855664         1.512853
 H         4.042214         0.911810         1.872695
 H         5.143288        -0.790235         0.013633
 H         3.816279         0.868025        -1.641293
 H         3.671249        -0.962754        -2.278490
 H         1.751099        -0.956583         2.015115
