19
Iteration:  4676charge 0 multiplicity 1
 C        -0.063036         0.129407        -0.030234
 C         1.495426        -0.074995         0.016204
 C         2.222312         1.303143         0.424778
 C         3.310419         0.406515         1.057996
 C         4.082412        -0.359864         0.053466
 C         3.464113        -0.305116        -1.280873
 O         2.026165        -0.554716        -1.248408
 O         3.401421        -1.705512         0.530956
 C         2.391220        -0.878940         1.042716
 H        -0.406977         1.084521        -0.486695
 H        -0.283549        -0.625627        -0.719165
 H        -0.380305        -0.040338         0.891064
 H         2.463579         2.035624        -0.382002
 H         1.827011         1.834569         1.339172
 H         3.804947         0.571542         1.952893
 H         5.170649        -0.497867         0.015976
 H         3.655087         0.665232        -1.849991
 H         3.994239        -1.219707        -1.843011
 H         1.942135        -1.214115         1.956414
