19
Iteration:  4768charge 0 multiplicity 1
 C         0.110187        -0.252245         0.026253
 C         1.538582         0.027499        -0.058959
 C         2.250964         1.371199         0.468396
 C         3.342844         0.427857         1.039163
 C         3.955006        -0.537993         0.055461
 C         3.529585        -0.393428        -1.325040
 O         2.069648        -0.212522        -1.345224
 O         3.200910        -1.715902         0.515100
 C         2.356556        -0.728027         1.162774
 H        -0.543511         0.023766        -0.738676
 H        -0.064790        -1.366740        -0.044830
 H        -0.301503         0.194559         1.071413
 H         2.649981         2.147090        -0.224026
 H         1.859247         1.770555         1.411477
 H         3.904706         1.011834         1.874083
 H         5.061757        -0.755056         0.012654
 H         3.886952         0.544606        -1.920136
 H         3.800670        -1.332764        -1.867621
 H         1.870731        -1.273030         2.087924
