19
Iteration:  3687
 C        -0.035642        -0.113611         0.021736
 C         1.541687        -0.009210         0.019775
 C         2.219661         1.320370         0.288543
 C         3.302505         0.491106         1.070709
 C         4.023334        -0.598723         0.101996
 C         3.536028        -0.328056        -1.375527
 O         2.037628        -0.400528        -1.418888
 O         3.290024        -1.692474         0.639988
 C         2.436006        -0.749076         1.232504
 H        -0.452463        -0.474762         1.026412
 H        -0.561474         0.896044        -0.148023
 H        -0.307186        -0.768681        -0.834203
 H         2.493569         2.097638        -0.499137
 H         1.675069         1.988543         1.101130
 H         4.149847         0.903310         1.597711
 H         5.117110        -0.701300         0.199970
 H         3.878229         0.613755        -1.756413
 H         3.925768        -1.231016        -1.987271
 H         2.016196        -0.913335         2.248015
