19
Iteration:   824charge 0 multiplicity 1
 C        -0.035815        -0.054041         0.016320
 C         1.499240         0.009536        -0.095083
 C         2.211853         1.303678         0.351166
 C         3.284245         0.445756         1.054122
 C         4.084440        -0.482389         0.112767
 C         3.510443        -0.408086        -1.314751
 O         2.046783        -0.457379        -1.299415
 O         3.401586        -1.632637         0.616530
 C         2.343884        -0.787027         1.125568
 H        -0.358522         0.365966         0.914275
 H        -0.540775         0.702514        -0.678905
 H        -0.312540        -1.020305        -0.401817
 H         2.457992         1.925567        -0.435802
 H         1.618734         1.797030         1.077038
 H         3.918245         0.758667         1.833531
 H         5.163256        -0.369536         0.302658
 H         3.870066         0.503715        -1.966572
 H         3.854118        -1.347787        -1.887629
 H         1.840857        -1.127314         1.973681
