19
Iteration:  3571charge 0 multiplicity 1
 C         0.115559        -0.303505         0.022145
 C         1.528769         0.072499        -0.017895
 C         2.339157         1.327643         0.441887
 C         3.345668         0.399173         1.130493
 C         4.008869        -0.522879         0.036830
 C         3.521658        -0.344714        -1.423826
 O         2.043186        -0.324093        -1.415139
 O         3.182797        -1.644854         0.619391
 C         2.295732        -0.655718         1.168319
 H        -0.315114         0.337354         0.744608
 H        -0.354358        -0.192032        -0.902108
 H         0.063367        -1.435948         0.329320
 H         2.535549         2.024559        -0.406367
 H         1.837046         1.861827         1.229028
 H         4.003985         0.829229         1.892844
 H         5.084666        -0.766927         0.151609
 H         3.761439         0.613495        -1.789586
 H         3.669489        -1.245036        -1.972787
 H         1.691492        -1.105261         1.960347
