19
Iteration:  3553charge 0 multiplicity 1
 C         0.094337        -0.244255         0.044041
 C         1.605934         0.031662        -0.023927
 C         2.250333         1.426108         0.409288
 C         3.311851         0.509945         1.105720
 C         3.984409        -0.554583         0.066730
 C         3.471213        -0.376924        -1.335405
 O         2.040075        -0.333976        -1.301843
 O         3.234451        -1.738184         0.543751
 C         2.369663        -0.722565         1.070182
 H        -0.408156         0.142973         0.947103
 H        -0.460320         0.153413        -0.875101
 H        -0.042127        -1.307218        -0.030935
 H         2.707384         2.037621        -0.393016
 H         1.662838         2.206975         0.973331
 H         3.896246         0.687577         2.012558
 H         5.059061        -0.789601         0.087363
 H         3.999866         0.511748        -1.802300
 H         3.855794        -1.210710        -1.946406
 H         1.742824        -1.027704         1.920651
