19
Iteration:  1256
 C         0.017026        -0.127349        -0.079790
 C         1.528155         0.075319        -0.035568
 C         2.257192         1.348245         0.421209
 C         3.389127         0.412822         1.029245
 C         4.099760        -0.523002         0.058903
 C         3.460927        -0.353667        -1.298466
 O         2.038140        -0.488756        -1.287255
 O         3.284719        -1.686238         0.615664
 C         2.316273        -0.678527         1.119289
 H        -0.601958         0.312889         0.696430
 H        -0.211004         0.131041        -1.024095
 H        -0.227037        -1.142135         0.054190
 H         2.376103         2.287063        -0.239122
 H         1.758164         1.640049         1.372163
 H         4.035110         0.870664         1.808533
 H         5.134075        -0.457895        -0.060139
 H         3.844691         0.687171        -1.684612
 H         3.704432        -1.210632        -1.889900
 H         1.663370        -1.087193         1.938197
