19
Iteration:   721
 C        -0.008932        -0.080473         0.086887
 C         1.571469        -0.118438        -0.121569
 C         2.279980         1.316244         0.342452
 C         3.255815         0.449639         1.180108
 C         4.014565        -0.454421         0.130738
 C         3.489970        -0.349684        -1.411320
 O         2.053235        -0.452730        -1.468415
 O         3.368394        -1.667138         0.650659
 C         2.329224        -0.751538         1.128504
 H        -0.149151         0.066775         1.193474
 H        -0.311562         0.771678        -0.517714
 H        -0.701272        -0.924401        -0.070071
 H         2.767533         2.028762        -0.344366
 H         1.601217         1.988776         0.938923
 H         3.870985         0.796202         2.069650
 H         5.148659        -0.397713         0.343120
 H         3.725611         0.730494        -1.785204
 H         3.968042        -1.207794        -1.854035
 H         1.613055        -0.998614         1.876411
