19
Iteration:   265
 C        -0.034226        -0.064708         0.027148
 C         1.517755         0.003871        -0.049781
 C         2.171090         1.341129         0.437994
 C         3.330157         0.392046         1.079302
 C         4.028064        -0.419118         0.100490
 C         3.495142        -0.408698        -1.350424
 O         2.031420        -0.414506        -1.413723
 O         3.428734        -1.699057         0.638873
 C         2.376319        -0.762752         1.074566
 H        -0.397855         0.552800         0.934095
 H        -0.400173         0.460768        -0.894573
 H        -0.430863        -1.018000        -0.115258
 H         2.296603         2.057568        -0.349708
 H         1.604338         1.669757         1.392526
 H         4.051906         0.618443         1.917676
 H         5.124943        -0.536804         0.111547
 H         3.949564         0.531397        -1.842809
 H         3.845952        -1.355154        -1.801976
 H         1.846651        -1.066075         2.014291
