19
Iteration:  4539charge 0 multiplicity 1
 C        -0.067126         0.020579         0.027490
 C         1.529182        -0.059588         0.014754
 C         2.226540         1.239693         0.370215
 C         3.249548         0.408320         1.043736
 C         4.004919        -0.500941         0.023492
 C         3.456277        -0.218084        -1.384440
 O         2.066491        -0.416128        -1.297497
 O         3.448800        -1.735200         0.645217
 C         2.424631        -0.858096         1.079349
 H        -0.568231         0.192419        -0.932881
 H        -0.751914        -0.777442         0.444298
 H        -0.203714         1.104096         0.522411
 H         2.650327         2.070039        -0.229982
 H         1.728784         1.783953         1.178932
 H         3.778174         0.697196         2.025850
 H         5.106625        -0.470286         0.058911
 H         3.759845         0.818385        -1.825344
 H         3.791295        -0.945150        -2.085533
 H         2.043556        -1.364584         1.987802
