19
Iteration:  2295
 C         0.031154        -0.026515        -0.097733
 C         1.543480        -0.043463        -0.014944
 C         2.234999         1.266582         0.518643
 C         3.415951         0.481023         1.099794
 C         4.035892        -0.473954         0.009329
 C         3.426917        -0.398179        -1.383368
 O         1.997797        -0.443804        -1.342208
 O         3.330971        -1.674992         0.630793
 C         2.355711        -0.733041         1.150370
 H        -0.424318         0.531823         0.740766
 H        -0.129920         0.555167        -1.047057
 H        -0.380686        -1.071627        -0.108745
 H         2.252900         2.036828        -0.419186
 H         1.673738         1.706635         1.430677
 H         3.885498         0.889820         2.023119
 H         5.115253        -0.791841         0.012213
 H         3.854969         0.516939        -1.901359
 H         3.957454        -1.167403        -1.987784
 H         1.867493        -1.097542         2.059565
