19
Iteration:  2086
 C         0.010928        -0.169064         0.069665
 C         1.506500         0.026097        -0.132097
 C         2.300584         1.379551         0.397749
 C         3.345362         0.431755         1.040739
 C         4.037723        -0.599327         0.082795
 C         3.514953        -0.318951        -1.303748
 O         2.033892        -0.405278        -1.379379
 O         3.296246        -1.670606         0.599598
 C         2.296486        -0.709035         1.161393
 H        -0.385608        -0.232009         1.146566
 H        -0.494896         0.619171        -0.336531
 H        -0.261289        -1.134732        -0.375045
 H         2.840404         2.033313        -0.345272
 H         1.820122         1.866819         1.188255
 H         3.832596         0.846321         1.878344
 H         5.147418        -0.563704         0.320673
 H         3.890736         0.665142        -1.877665
 H         3.712195        -1.057632        -2.106831
 H         1.925116        -1.240539         1.984964
