19
Iteration:   740charge 0 multiplicity 1
 C         0.092004        -0.121743         0.080882
 C         1.545431         0.048613        -0.089560
 C         2.246162         1.312877         0.325992
 C         3.252207         0.468462         1.087075
 C         4.023930        -0.492727         0.099890
 C         3.545481        -0.338674        -1.309792
 O         2.061160        -0.427855        -1.364227
 O         3.295700        -1.682852         0.631364
 C         2.302653        -0.770011         1.073622
 H        -0.164922         0.047903         1.138328
 H        -0.600134         0.375184        -0.557312
 H        -0.081009        -1.179642         0.036708
 H         2.506827         2.011541        -0.588370
 H         1.653273         1.944633         0.985116
 H         3.782625         0.839507         1.924738
 H         5.064042        -0.653372         0.067176
 H         3.903175         0.549390        -1.767469
 H         3.893684        -1.150711        -1.883127
 H         1.700721        -1.213264         1.953488
