19
Iteration:  4812charge 0 multiplicity 1
 C        -0.027368         0.023836        -0.133316
 C         1.457846        -0.012271        -0.002732
 C         2.288805         1.309097         0.449421
 C         3.325960         0.408256         1.024786
 C         4.057549        -0.513180         0.033023
 C         3.414460        -0.266547        -1.307183
 O         2.021940        -0.463541        -1.244498
 O         3.434904        -1.685457         0.606311
 C         2.391682        -0.884180         1.122037
 H        -0.388762         0.853615        -0.648252
 H        -0.583789        -0.787189        -0.642435
 H        -0.508265        -0.007264         0.911622
 H         2.498477         2.036980        -0.357942
 H         1.717292         1.713470         1.288679
 H         4.097344         0.701536         1.841731
 H         5.176074        -0.527576         0.057056
 H         3.739318         0.800760        -1.646869
 H         3.671485        -0.979981        -2.117846
 H         1.830920        -1.127464         2.098687
