19
Iteration:  2286
 C         0.056736        -0.043895        -0.097282
 C         1.527060        -0.039206         0.031617
 C         2.174692         1.325789         0.541048
 C         3.395499         0.492181         1.048163
 C         4.062659        -0.529716         0.062596
 C         3.455478        -0.396813        -1.356684
 O         2.015637        -0.460741        -1.356007
 O         3.328137        -1.714645         0.583710
 C         2.386667        -0.696861         1.137723
 H        -0.384424         0.377256         0.712495
 H        -0.221436         0.526120        -1.034985
 H        -0.439414        -0.969970        -0.326606
 H         2.377982         2.223849        -0.100775
 H         1.591613         1.829299         1.377095
 H         4.066958         0.842293         1.956367
 H         5.126150        -0.548849        -0.015123
 H         3.796772         0.508032        -1.987348
 H         3.536561        -1.332765        -1.880576
 H         1.808429        -0.913231         2.054117
