19
Iteration:  2589
 C        -0.005169        -0.003956        -0.056658
 C         1.517465         0.010960        -0.053659
 C         2.309723         1.341340         0.424003
 C         3.334513         0.394448         1.062828
 C         4.030469        -0.473772         0.062009
 C         3.460354        -0.299160        -1.258982
 O         2.024597        -0.553468        -1.308655
 O         3.394029        -1.721639         0.646746
 C         2.308929        -0.781465         1.059418
 H        -0.304875         0.018045         1.014185
 H        -0.409940         0.822897        -0.603676
 H        -0.450488        -0.826134        -0.634908
 H         2.620680         2.093452        -0.359535
 H         1.805130         1.970424         1.160953
 H         3.785890         0.908295         1.851444
 H         5.156501        -0.592251        -0.168641
 H         3.605173         0.740611        -1.577393
 H         3.757740        -0.952577        -2.117242
 H         1.726701        -0.974353         1.965153
