19
Iteration:  2957
 C         0.084142        -0.211303        -0.047406
 C         1.517998         0.050903        -0.076450
 C         2.311625         1.359678         0.472196
 C         3.306424         0.442104         1.073037
 C         4.049740        -0.547890         0.060353
 C         3.424296        -0.359151        -1.404656
 O         2.088212        -0.388844        -1.318856
 O         3.245868        -1.656026         0.566631
 C         2.327194        -0.742158         1.189494
 H        -0.109288         0.027685         1.102935
 H        -0.612158         0.491605        -0.563463
 H        -0.209433        -1.265639        -0.442129
 H         2.565381         2.009959        -0.355093
 H         1.725020         1.798649         1.310787
 H         3.986383         0.949186         1.777874
 H         5.103380        -0.558746         0.322492
 H         3.874313         0.728774        -1.584549
 H         3.802145        -1.214069        -1.971982
 H         1.732629        -1.075566         2.038096
