19
Iteration:  1928charge 0 multiplicity 1
 C         0.097486        -0.136374        -0.154645
 C         1.549737         0.038010         0.076585
 C         2.235888         1.350427         0.470617
 C         3.324701         0.485128         1.032661
 C         4.047597        -0.501707         0.037272
 C         3.433414        -0.411517        -1.440318
 O         2.008901        -0.404913        -1.365065
 O         3.292909        -1.713270         0.637524
 C         2.402634        -0.736928         1.231237
 H        -0.450697         0.062904         0.706347
 H        -0.280319         0.627157        -0.917117
 H        -0.064968        -1.172155        -0.441066
 H         2.393286         2.188891        -0.203039
 H         1.598206         1.720452         1.411836
 H         3.977567         0.908590         1.819015
 H         5.041880        -0.747017         0.376693
 H         3.703574         0.628159        -1.664452
 H         3.638084        -1.341744        -1.970216
 H         1.979418        -0.949969         2.281966
