19
Iteration:  2764
 C        -0.006910         0.045325        -0.118728
 C         1.480330        -0.016401        -0.060463
 C         2.176652         1.337855         0.471631
 C         3.261773         0.441242         1.091480
 C         4.009846        -0.458703         0.033110
 C         3.437193        -0.348069        -1.337958
 O         2.053124        -0.440130        -1.316190
 O         3.464140        -1.769386         0.636021
 C         2.459589        -0.854951         1.142165
 H        -0.506870         0.221111         0.849224
 H        -0.219670         0.951696        -0.612031
 H        -0.487424        -0.923958        -0.456039
 H         2.475192         2.122444        -0.325723
 H         1.719054         1.840959         1.345450
 H         3.874301         0.765861         1.949348
 H         5.127646        -0.584075         0.166124
 H         3.709165         0.571458        -1.974614
 H         3.677234        -1.236629        -2.048654
 H         2.000313        -1.059972         2.138296
