19
Iteration:  4024charge 0 multiplicity 1
 C        -0.025508        -0.201036        -0.015556
 C         1.528332         0.019973        -0.022669
 C         2.226533         1.342031         0.503113
 C         3.408385         0.534963         1.046789
 C         3.990547        -0.658175         0.086040
 C         3.474848        -0.324554        -1.459595
 O         2.085481        -0.324761        -1.384866
 O         3.300235        -1.726021         0.676707
 C         2.408544        -0.703250         1.138572
 H        -0.699862         0.710423        -0.055483
 H        -0.333786        -0.858512        -0.862267
 H        -0.260244        -0.737035         0.923182
 H         2.341512         1.975368        -0.331985
 H         1.751957         1.904173         1.278140
 H         3.991806         0.894169         1.942200
 H         5.079609        -0.703629         0.069412
 H         3.815790         0.634306        -1.705821
 H         3.772428        -0.944899        -2.318289
 H         1.695577        -1.100417         1.875738
