19
Iteration:  1037charge 0 multiplicity 1
 C         0.077262        -0.069237        -0.241983
 C         1.579737         0.019025        -0.028608
 C         2.131415         1.262326         0.484069
 C         3.365306         0.534645         1.067140
 C         3.957858        -0.538055         0.028088
 C         3.393053        -0.466343        -1.348231
 O         1.997584        -0.349805        -1.278713
 O         3.447382        -1.717450         0.698636
 C         2.447956        -0.732613         1.170020
 H        -0.447634         0.057554         0.866755
 H        -0.387131         0.731023        -0.787996
 H        -0.258587        -1.043260        -0.667359
 H         2.156011         2.161825        -0.214707
 H         1.645393         1.640286         1.324818
 H         3.953914         1.121258         1.902555
 H         4.979089        -0.685266        -0.095274
 H         3.851996         0.292105        -1.995850
 H         3.694124        -1.337115        -1.927999
 H         1.731285        -0.900562         2.118923
