19
Iteration:   690
 C        -0.005934        -0.021787        -0.140379
 C         1.530629        -0.030149         0.021966
 C         2.195246         1.364310         0.377048
 C         3.305013         0.446465         1.027725
 C         4.032947        -0.507303         0.121538
 C         3.415100        -0.318029        -1.337225
 O         2.036979        -0.486281        -1.218546
 O         3.467284        -1.737388         0.617772
 C         2.380006        -0.766596         1.136134
 H        -0.676033         0.155747         0.760167
 H        -0.264757         0.881569        -0.783799
 H        -0.373506        -0.934262        -0.731200
 H         2.345341         2.151931        -0.273939
 H         1.572667         1.744328         1.247214
 H         4.017200         0.924531         1.799722
 H         5.200131        -0.583757         0.143855
 H         3.712690         0.585258        -2.053056
 H         3.872567        -1.160319        -2.081264
 H         1.757526        -1.117120         1.915381
