19
Iteration:  3144
 C         0.053022        -0.161942        -0.090643
 C         1.480050         0.040513         0.049071
 C         2.207885         1.383708         0.457505
 C         3.312392         0.425449         1.013144
 C         3.995635        -0.518993         0.036233
 C         3.530046        -0.418311        -1.448397
 O         2.049294        -0.350571        -1.290715
 O         3.308642        -1.680387         0.631977
 C         2.397188        -0.732717         1.211547
 H        -0.603809        -0.309103         0.835302
 H        -0.314348         0.617685        -0.690498
 H         0.098073        -1.155890        -0.719131
 H         2.608194         2.080221        -0.317309
 H         1.767564         2.017288         1.293230
 H         3.941055         0.844635         1.755067
 H         5.097744        -0.714626         0.217769
 H         3.842120         0.412605        -1.986254
 H         3.699975        -1.360941        -1.874939
 H         1.881757        -1.064989         2.091881
