19
Iteration:  4317
 C         0.050785        -0.247033         0.046890
 C         1.607975         0.113424        -0.058751
 C         2.231809         1.354326         0.424096
 C         3.360971         0.413500         1.123777
 C         4.006351        -0.500528         0.065989
 C         3.482055        -0.396929        -1.381187
 O         2.016138        -0.196521        -1.347554
 O         3.249191        -1.741551         0.553542
 C         2.411508        -0.801612         1.146221
 H        -0.472143        -0.143877        -0.973949
 H        -0.037505        -1.271348         0.439956
 H        -0.641570         0.230288         0.763502
 H         2.422178         2.086170        -0.392803
 H         1.568391         1.837549         1.113849
 H         3.878512         0.717396         2.030536
 H         5.107949        -0.418616         0.078275
 H         4.062345         0.365432        -2.046684
 H         3.664598        -1.296736        -1.891768
 H         1.847428        -1.230015         1.980196
