19
Iteration:  2742
 C         0.066942         0.043122        -0.119840
 C         1.538897        -0.035664         0.005756
 C         2.188455         1.221956         0.431527
 C         3.353245         0.397406         1.121253
 C         3.993673        -0.510206         0.012855
 C         3.457658        -0.304435        -1.378914
 O         1.963743        -0.451981        -1.321917
 O         3.430337        -1.623934         0.689307
 C         2.346855        -0.821626         1.120053
 H        -0.443894         0.144305         0.863267
 H        -0.009235         1.005327        -0.517822
 H        -0.273453        -0.935022        -0.565270
 H         2.674888         1.948247        -0.305528
 H         1.588457         1.714535         1.222409
 H         3.992678         0.743382         1.942165
 H         5.158714        -0.487801         0.094536
 H         3.505810         0.679821        -1.861137
 H         3.783637        -1.047034        -2.210784
 H         1.830343        -1.361709         1.954798
