19
Iteration:  2802charge 0 multiplicity 1
 C         0.075139        -0.210337        -0.036010
 C         1.551989         0.024762         0.015865
 C         2.242284         1.382211         0.478508
 C         3.322445         0.433511         1.061359
 C         3.975170        -0.541712         0.060241
 C         3.487029        -0.313625        -1.440423
 O         2.093300        -0.375541        -1.306880
 O         3.220098        -1.719612         0.601504
 C         2.377077        -0.724967         1.123698
 H        -0.328004         0.152003         0.941445
 H        -0.313129         0.438280        -0.911397
 H        -0.327155        -1.178888        -0.258143
 H         2.643490         2.061134        -0.230616
 H         1.681403         2.033958         1.178269
 H         3.893164         0.740445         1.941476
 H         5.058186        -0.616883         0.076115
 H         3.899245         0.563802        -1.868748
 H         3.976158        -1.071079        -1.952122
 H         1.887554        -1.119846         2.014741
