19
Iteration:  4004
 C         0.123328        -0.214114         0.022654
 C         1.572149         0.009262        -0.026958
 C         2.222720         1.305324         0.384281
 C         3.279930         0.406794         1.041562
 C         4.027171        -0.483973         0.035174
 C         3.521575        -0.365344        -1.328953
 O         2.034891        -0.243345        -1.343992
 O         3.258811        -1.694121         0.609388
 C         2.356811        -0.757875         1.158512
 H        -0.385610         0.766948        -0.074975
 H        -0.307374        -0.814331        -0.754043
 H        -0.293192        -0.625501         1.057988
 H         2.334813         1.947971        -0.433603
 H         1.763685         1.749738         1.266049
 H         3.885202         0.736088         1.817527
 H         5.099729        -0.597349        -0.071807
 H         3.945863         0.398168        -1.918172
 H         3.618683        -1.374620        -1.863071
 H         1.857249        -0.902536         2.094586
