19
Iteration:  2556charge 0 multiplicity 1
 C         0.091320        -0.111913        -0.031719
 C         1.568659        -0.011461        -0.033679
 C         2.240157         1.301989         0.412027
 C         3.312465         0.438342         1.100263
 C         4.007592        -0.507953        -0.007190
 C         3.470578        -0.377118        -1.369632
 O         2.057440        -0.327094        -1.329127
 O         3.287252        -1.703448         0.642996
 C         2.316027        -0.761031         1.171079
 H        -0.391807        -0.070441         0.941666
 H        -0.346289         0.747620        -0.453744
 H        -0.328645        -1.039975        -0.448003
 H         2.567681         1.738661        -0.536149
 H         1.722282         1.919258         1.118368
 H         3.834237         0.926710         1.872612
 H         5.149388        -0.566214         0.014368
 H         3.950235         0.509926        -1.835199
 H         3.902823        -1.296195        -1.904978
 H         1.804254        -0.950779         2.119805
