19
Iteration:  3963charge 0 multiplicity 1
 C        -0.010424        -0.050779        -0.095982
 C         1.492840        -0.001518        -0.050583
 C         2.245413         1.290799         0.518222
 C         3.362011         0.412167         1.096005
 C         4.062867        -0.497730         0.002686
 C         3.429964        -0.321219        -1.418092
 O         1.991058        -0.444160        -1.341744
 O         3.387243        -1.693103         0.634023
 C         2.399143        -0.752496         1.171183
 H        -0.389154         0.610184        -0.821349
 H        -0.312422        -1.041844        -0.222666
 H        -0.332867         0.303615         0.922525
 H         2.447356         2.116122        -0.232437
 H         1.754648         1.731440         1.438239
 H         3.751391         0.727445         2.016235
 H         5.136930        -0.539374         0.111202
 H         3.784253         0.729782        -1.819897
 H         3.881924        -1.151215        -1.984921
 H         1.906333        -1.164898         2.035549
