19
Iteration:  1257charge 0 multiplicity 1
 C         0.012942        -0.119030        -0.076822
 C         1.517212         0.075354        -0.029160
 C         2.261408         1.354327         0.422248
 C         3.390259         0.416985         1.029132
 C         4.095377        -0.515139         0.056073
 C         3.468209        -0.360616        -1.298448
 O         2.036163        -0.486283        -1.288634
 O         3.294426        -1.683670         0.620300
 C         2.319857        -0.689433         1.112519
 H        -0.590445         0.336746         0.668778
 H        -0.278620         0.126230        -1.074237
 H        -0.225288        -1.151065         0.039016
 H         2.357219         2.274821        -0.219752
 H         1.743611         1.601133         1.397632
 H         4.013881         0.844013         1.784420
 H         5.135744        -0.480525        -0.045238
 H         3.855800         0.626491        -1.683472
 H         3.713939        -1.226800        -1.894805
 H         1.665484        -1.102606         1.939033
