19
Iteration:  2600
 C         0.047206         0.051854        -0.104970
 C         1.516913        -0.064105        -0.030015
 C         2.231424         1.277413         0.435855
 C         3.300115         0.451316         1.066440
 C         4.006178        -0.498936         0.031639
 C         3.413925        -0.290462        -1.377815
 O         2.083642        -0.536943        -1.247045
 O         3.339694        -1.685431         0.625797
 C         2.373240        -0.729343         1.114151
 H        -0.263499         0.124453         0.979064
 H        -0.260508         0.971266        -0.588092
 H        -0.308315        -0.943182        -0.402507
 H         2.555644         2.014916        -0.343637
 H         1.658933         1.782690         1.231872
 H         3.907401         0.454837         1.923077
 H         5.159312        -0.629816         0.092410
 H         3.733177         0.667062        -1.758393
 H         3.958516        -1.059535        -2.024695
 H         1.878827        -1.122667         2.011224
