19
Iteration:  3830
 C         0.005407        -0.114421        -0.098903
 C         1.541329         0.015375         0.051002
 C         2.242926         1.425987         0.441095
 C         3.376338         0.474105         1.114831
 C         4.060696        -0.532615         0.008261
 C         3.419014        -0.349146        -1.379311
 O         2.068114        -0.428778        -1.263009
 O         3.309452        -1.758654         0.580085
 C         2.381516        -0.753774         1.131116
 H        -0.478578         0.819903        -0.212485
 H        -0.213832        -0.705762        -0.936945
 H        -0.466690        -0.677783         0.748265
 H         2.254769         2.156082        -0.414538
 H         1.630899         2.026602         1.224112
 H         3.826308         0.916279         1.931366
 H         5.086445        -0.813194        -0.021033
 H         3.753752         0.588810        -1.852978
 H         3.684130        -1.221592        -2.050591
 H         2.021707        -0.999933         2.101617
