19
Iteration:  1664charge 0 multiplicity 1
 C        -0.012030        -0.209260        -0.199736
 C         1.534229        -0.017892        -0.002580
 C         2.269172         1.349976         0.469852
 C         3.388245         0.470776         1.064375
 C         4.000763        -0.539653         0.072809
 C         3.442863        -0.497682        -1.366376
 O         2.035250        -0.277119        -1.300265
 O         3.332938        -1.680621         0.659370
 C         2.392039        -0.663566         1.200890
 H        -0.335481         0.287533         0.670887
 H        -0.442802         0.554423        -0.988354
 H        -0.366727        -1.212579        -0.437770
 H         2.394163         1.975234        -0.299741
 H         1.680580         1.762336         1.312164
 H         4.155739         1.098883         1.576226
 H         5.050879        -0.498124         0.309474
 H         3.734238         0.307505        -2.123605
 H         3.677092        -1.405663        -1.891142
 H         1.842438        -1.175284         2.065373
