19
Iteration:   579
 C         0.059836        -0.056666        -0.057695
 C         1.569319         0.024872        -0.027573
 C         2.217117         1.329543         0.371967
 C         3.281577         0.453747         1.132297
 C         4.066579        -0.507657         0.089267
 C         3.494774        -0.334958        -1.325529
 O         1.998956        -0.459309        -1.276711
 O         3.378360        -1.691764         0.565117
 C         2.319182        -0.770634         1.088413
 H        -0.232147         0.066244         1.047824
 H        -0.476307         0.616371        -0.754863
 H        -0.180171        -1.122619        -0.198389
 H         2.368178         2.128779        -0.302939
 H         1.477516         1.706332         1.085564
 H         3.762456         0.792231         2.031823
 H         5.178691        -0.654654        -0.027922
 H         3.840284         0.619234        -1.640340
 H         3.822411        -1.133495        -2.178306
 H         1.766477        -1.181283         1.873012
