19
Iteration:  3374charge 0 multiplicity 1
 C        -0.032772        -0.046888        -0.138493
 C         1.554782        -0.013690         0.060097
 C         2.156924         1.329573         0.464495
 C         3.365426         0.439279         1.120252
 C         4.051109        -0.496203        -0.004750
 C         3.475697        -0.410537        -1.387486
 O         2.045605        -0.398704        -1.280421
 O         3.325082        -1.659535         0.581229
 C         2.418415        -0.783628         1.192519
 H        -0.614749         0.546629         0.546466
 H        -0.147641         0.259542        -1.112515
 H        -0.327878        -1.129467         0.126410
 H         2.529795         1.916001        -0.431364
 H         1.562080         1.934114         1.201003
 H         4.025238         0.812099         1.927523
 H         5.220773        -0.659538        -0.107266
 H         3.635821         0.534728        -1.877048
 H         3.813761        -1.222070        -2.079731
 H         1.959491        -1.194514         2.122260
