19
Iteration:  3317charge 0 multiplicity 1
 C         0.018408        -0.061276        -0.006075
 C         1.571169        -0.034907        -0.048222
 C         2.250632         1.305590         0.346824
 C         3.313167         0.508249         1.085143
 C         3.945967        -0.486142         0.117538
 C         3.503023        -0.318884        -1.335876
 O         2.018255        -0.453009        -1.325251
 O         3.363521        -1.709420         0.571373
 C         2.363428        -0.808872         1.180869
 H        -0.310804        -0.217123         1.080487
 H        -0.508573         0.842276        -0.339763
 H        -0.361042        -0.747544        -0.713752
 H         2.690419         1.928703        -0.426043
 H         1.689076         1.994147         0.999879
 H         3.884192         1.015579         1.806392
 H         5.058887        -0.622976         0.036690
 H         3.660592         0.634338        -1.829368
 H         4.000564        -1.138725        -1.910210
 H         1.960811        -1.260299         2.079491
