19
Iteration:  4426charge 0 multiplicity 1
 C        -0.057593        -0.140023         0.061401
 C         1.526800         0.008138        -0.038120
 C         2.251745         1.418267         0.461467
 C         3.354167         0.481094         1.063018
 C         4.103855        -0.504575         0.028498
 C         3.490119        -0.399313        -1.334524
 O         2.024492        -0.399169        -1.339097
 O         3.352027        -1.704613         0.593223
 C         2.309720        -0.781466         1.031809
 H        -0.562823         0.862016        -0.032135
 H        -0.270853        -0.849302        -0.736081
 H        -0.362239        -0.424197         1.060273
 H         2.641823         2.299429         0.022470
 H         1.601100         1.702878         1.222280
 H         3.867712         0.794681         1.931370
 H         5.196402        -0.580538        -0.060909
 H         4.000265         0.472782        -1.877955
 H         3.816944        -1.225151        -1.894078
 H         1.764108        -1.297335         1.815745
