19
Iteration:   420
 C         0.092923        -0.047447        -0.229017
 C         1.516652         0.054849        -0.010291
 C         2.125545         1.325137         0.541823
 C         3.348684         0.482324         1.030830
 C         4.027168        -0.550557         0.044088
 C         3.416761        -0.330154        -1.408905
 O         1.977999        -0.476799        -1.242321
 O         3.384750        -1.738519         0.587686
 C         2.479974        -0.729781         1.236971
 H        -0.575304         0.067178         0.603071
 H        -0.163653         0.611786        -1.074455
 H        -0.097366        -1.137225        -0.439853
 H         2.162916         2.226561        -0.229294
 H         1.698000         1.925339         1.425151
 H         3.773854         0.837731         2.080986
 H         5.155945        -0.718358         0.026597
 H         3.758310         0.560585        -1.841807
 H         3.701348        -1.120551        -2.042942
 H         2.152634        -1.184066         2.306134
