19
Iteration:  3048charge 0 multiplicity 1
 C        -0.023502        -0.040606        -0.094648
 C         1.552057         0.005778        -0.068369
 C         2.278745         1.357044         0.451819
 C         3.279341         0.406315         1.143237
 C         4.035507        -0.467254         0.016297
 C         3.435487        -0.293896        -1.382433
 O         2.083167        -0.553110        -1.237542
 O         3.350313        -1.669046         0.581581
 C         2.360662        -0.803985         1.145545
 H        -0.396484         0.593494         0.713804
 H        -0.250392         0.597170        -0.965045
 H        -0.456430        -1.106133         0.004519
 H         2.625957         2.144287        -0.217771
 H         1.589326         1.771868         1.175101
 H         4.067844         0.703682         1.832818
 H         5.059461        -0.448687         0.087365
 H         3.688115         0.792834        -1.835900
 H         3.722107        -1.123990        -2.031906
 H         1.859865        -1.258745         2.000758
