19
Iteration:  2153
 C        -0.034250        -0.084738        -0.165914
 C         1.532458        -0.016379        -0.043893
 C         2.257454         1.339562         0.541916
 C         3.343992         0.355171         1.046721
 C         4.049923        -0.542457         0.022864
 C         3.337604        -0.325982        -1.352889
 O         2.010059        -0.394533        -1.273882
 O         3.448688        -1.676902         0.678390
 C         2.399936        -0.732806         1.157138
 H        -0.509119         0.654878         0.444333
 H        -0.136409         0.312919        -1.173249
 H        -0.571454        -1.057905        -0.050981
 H         2.522788         1.972640        -0.333173
 H         1.861219         1.957533         1.354375
 H         4.052914         0.560098         1.911119
 H         5.145900        -0.673690        -0.076114
 H         3.749428         0.449093        -2.039434
 H         3.676939        -1.032506        -2.112445
 H         1.687656        -0.831778         1.945074
