19
Iteration:  4984
 C         0.001043         0.067400        -0.042570
 C         1.504866        -0.110097         0.040076
 C         2.195191         1.243361         0.369767
 C         3.315934         0.405620         1.069501
 C         4.116394        -0.425425         0.063879
 C         3.419787        -0.288906        -1.319278
 O         1.975967        -0.443222        -1.317968
 O         3.423327        -1.687181         0.626037
 C         2.422961        -0.877842         1.100904
 H        -0.291317         0.994931        -0.649736
 H        -0.596246        -0.590986        -0.632521
 H        -0.384894         0.282901         1.045880
 H         2.332345         1.952352        -0.478472
 H         1.603823         1.805279         1.122894
 H         3.896303         0.794767         1.938716
 H         5.236057        -0.405814         0.111611
 H         3.981589         0.602931        -1.806212
 H         3.827741        -1.132753        -1.996160
 H         1.756933        -1.315359         1.834692
