19
Iteration:  4929
 C         0.034615        -0.265851        -0.061792
 C         1.558844         0.022818         0.016045
 C         2.316038         1.454780         0.540015
 C         3.386113         0.450614         1.113882
 C         3.973100        -0.595490         0.028231
 C         3.489513        -0.334499        -1.349107
 O         2.000845        -0.371734        -1.313049
 O         3.243069        -1.702788         0.506629
 C         2.362889        -0.655934         1.085133
 H        -0.370670         0.022049        -1.092864
 H        -0.088150        -1.339389         0.105638
 H        -0.461664         0.085350         0.914954
 H         2.555190         2.166735        -0.291034
 H         1.719782         1.835241         1.406651
 H         4.152412         0.882961         1.792435
 H         5.072307        -0.767852         0.139958
 H         4.065853         0.588202        -1.599045
 H         3.703518        -1.212175        -2.101351
 H         1.753111        -0.902576         1.958704
