19
Iteration:  2904
 C        -0.068836         0.098268        -0.105751
 C         1.461357        -0.009639        -0.087204
 C         2.234052         1.302752         0.469501
 C         3.292422         0.417266         1.126586
 C         4.037891        -0.513558        -0.007696
 C         3.520623        -0.313165        -1.403341
 O         1.998963        -0.522578        -1.297238
 O         3.460112        -1.655328         0.665040
 C         2.400541        -0.850580         1.168461
 H        -0.638615         0.024054         0.904505
 H        -0.434237         0.927987        -0.629163
 H        -0.262437        -0.973959        -0.497599
 H         2.387257         2.118506        -0.267240
 H         1.603727         1.748236         1.255253
 H         4.027155         0.800198         1.845904
 H         5.086823        -0.536757         0.068193
 H         3.925910         0.608832        -1.734395
 H         3.957220        -1.112756        -2.006491
 H         1.929895        -1.259003         2.054016
