19
Iteration:  3924charge 0 multiplicity 1
 C        -0.045403        -0.036706        -0.106822
 C         1.485055        -0.007628         0.092880
 C         2.213413         1.305636         0.433913
 C         3.334778         0.415772         1.060851
 C         4.113471        -0.550963         0.082698
 C         3.454179        -0.229017        -1.377817
 O         2.075373        -0.479396        -1.276154
 O         3.330684        -1.701890         0.506172
 C         2.410208        -0.780700         1.172399
 H        -0.466524         0.175353        -1.188907
 H        -0.483222        -1.014385         0.398261
 H        -0.465696         0.694899         0.551493
 H         2.527328         1.970925        -0.366896
 H         1.723817         1.954722         1.117670
 H         3.977570         0.662054         2.028787
 H         5.228401        -0.807043         0.001829
 H         3.534466         0.771051        -1.693922
 H         3.739962        -0.813493        -2.258637
 H         2.063715        -1.016960         2.236437
