19
Iteration:  3574
 C         0.092444        -0.300545         0.016679
 C         1.553087         0.069499        -0.033718
 C         2.332072         1.314340         0.418887
 C         3.346074         0.391423         1.113948
 C         3.998359        -0.515720         0.044663
 C         3.513214        -0.338302        -1.418433
 O         2.029993        -0.318155        -1.391761
 O         3.195739        -1.645144         0.625258
 C         2.305983        -0.657441         1.187867
 H        -0.405229         0.332885         0.748942
 H        -0.467410        -0.264586        -0.963599
 H         0.043899        -1.361076         0.317573
 H         2.547090         2.143402        -0.300697
 H         1.860168         1.857021         1.289611
 H         4.051275         0.770547         1.851694
 H         5.032096        -0.863291         0.126454
 H         3.942958         0.575733        -1.887976
 H         3.861382        -1.167955        -2.044833
 H         1.684277        -1.080922         1.969867
