19
Iteration:  2077charge 0 multiplicity 1
 C         0.031484        -0.148196        -0.022682
 C         1.515431         0.009293        -0.091302
 C         2.319206         1.384916         0.405838
 C         3.310386         0.418588         1.029000
 C         4.001298        -0.579966         0.080519
 C         3.494549        -0.329390        -1.332354
 O         1.957503        -0.387103        -1.317269
 O         3.379513        -1.685955         0.657373
 C         2.322913        -0.737612         1.126561
 H        -0.073492        -0.300213         1.070392
 H        -0.519550         0.755204        -0.426452
 H        -0.414657        -0.992583        -0.618016
 H         2.705848         2.113712        -0.279912
 H         1.697642         1.971747         1.052042
 H         4.072257         0.699060         1.845162
 H         5.086349        -0.642569         0.095994
 H         3.896266         0.718282        -1.713534
 H         3.833243        -1.102971        -2.041821
 H         1.839473        -1.183645         2.031443
