19
Iteration:   528charge 0 multiplicity 1
 C         0.058537        -0.063444        -0.185254
 C         1.535764        -0.004767         0.012029
 C         2.161965         1.277404         0.486040
 C         3.335010         0.464913         0.977947
 C         4.060531        -0.531449         0.089142
 C         3.352946        -0.303283        -1.345622
 O         2.023609        -0.420414        -1.233166
 O         3.368528        -1.699914         0.633124
 C         2.449085        -0.804893         1.160028
 H        -0.533121        -0.021476         0.741408
 H        -0.134061         0.894770        -0.720114
 H        -0.203212        -0.938177        -0.823269
 H         2.340494         2.106051        -0.248437
 H         1.537180         1.893377         1.299941
 H         4.050919         1.000172         1.736048
 H         5.208636        -0.697245         0.067300
 H         3.940570         0.630350        -1.943776
 H         3.615455        -1.076570        -2.120299
 H         1.919262        -1.205644         2.091562
