19
Iteration:  2583charge 0 multiplicity 1
 C        -0.014171        -0.041547        -0.030963
 C         1.530912         0.049877        -0.097356
 C         2.319006         1.381885         0.382972
 C         3.333909         0.415613         1.085507
 C         4.082173        -0.538808         0.071927
 C         3.442913        -0.297760        -1.302229
 O         1.983272        -0.527261        -1.317098
 O         3.398262        -1.717976         0.649136
 C         2.316519        -0.798553         1.087182
 H        -0.557953        -0.009477         0.938412
 H        -0.480356         0.926818        -0.520273
 H        -0.456581        -0.874750        -0.591188
 H         2.685412         1.955079        -0.454219
 H         1.727972         1.821690         1.211423
 H         3.915040         0.922427         1.959670
 H         5.152297        -0.483915         0.131407
 H         3.621577         0.812707        -1.505902
 H         3.924434        -0.968692        -1.989994
 H         1.694327        -1.156853         1.946619
