19
Iteration:  2262
 C         0.026753        -0.087675        -0.090840
 C         1.490841         0.091363         0.024025
 C         2.230493         1.318523         0.484374
 C         3.381564         0.488856         1.022102
 C         4.032258        -0.531901         0.008011
 C         3.493854        -0.447883        -1.408267
 O         2.095169        -0.381519        -1.262177
 O         3.325538        -1.684926         0.627417
 C         2.309555        -0.794646         1.175920
 H        -0.415667        -0.143529         0.918075
 H        -0.566639         0.549477        -0.760436
 H        -0.175947        -1.046964        -0.623448
 H         2.242374         2.163798        -0.385836
 H         1.780223         1.964963         1.303873
 H         3.848527         0.945001         1.910252
 H         5.143110        -0.753390        -0.112298
 H         3.902701         0.504845        -1.897145
 H         3.522173        -1.336146        -2.087943
 H         1.870972        -1.143470         2.115925
