19
Iteration:  3628charge 0 multiplicity 1
 C        -0.002276         0.018858        -0.146503
 C         1.506569        -0.032469        -0.027290
 C         2.253183         1.249723         0.445077
 C         3.285989         0.464970         1.104924
 C         3.995469        -0.435648         0.010604
 C         3.391404        -0.357233        -1.389835
 O         2.065391        -0.484845        -1.249535
 O         3.384470        -1.697361         0.613662
 C         2.456784        -0.764823         1.207195
 H        -0.439944         0.450615         0.768324
 H        -0.281585         0.701420        -1.008463
 H        -0.563155        -0.941001        -0.254499
 H         2.545443         1.943591        -0.379933
 H         1.574956         1.715097         1.236709
 H         4.073760         0.857640         1.759051
 H         5.102487        -0.514056         0.044676
 H         3.769342         0.483645        -1.873358
 H         3.806413        -1.203767        -1.886679
 H         2.033119        -1.222984         2.125750
