19
Iteration:  3897charge 0 multiplicity 1
 C         0.063209        -0.166944        -0.020830
 C         1.539782         0.067672         0.023567
 C         2.312987         1.356302         0.458105
 C         3.317409         0.442042         1.104254
 C         4.016617        -0.504637         0.087498
 C         3.452918        -0.371344        -1.378151
 O         2.018312        -0.375141        -1.357298
 O         3.339510        -1.668000         0.551628
 C         2.302946        -0.804455         1.097053
 H        -0.370810        -0.006337        -0.935499
 H        -0.148067        -1.095848         0.366864
 H        -0.428317         0.543789         0.719139
 H         2.671242         2.207272        -0.192687
 H         1.798722         1.846610         1.359880
 H         3.869707         0.698519         1.958436
 H         5.066701        -0.633267        -0.020079
 H         3.770076         0.584304        -1.880611
 H         3.771933        -1.272806        -1.929362
 H         1.665664        -1.323050         1.786916
