19
Iteration:  3874
 C         0.113162        -0.182167         0.008684
 C         1.588186         0.025320        -0.021631
 C         2.145845         1.318437         0.457969
 C         3.321010         0.477010         1.109525
 C         3.972017        -0.559645        -0.023012
 C         3.513416        -0.399302        -1.406687
 O         2.032708        -0.216229        -1.387233
 O         3.293869        -1.785539         0.680430
 C         2.424872        -0.718866         1.130985
 H        -0.374815         0.376471        -0.719863
 H        -0.198110        -1.161500         0.019993
 H        -0.251749         0.234723         0.973224
 H         2.554031         2.094586        -0.229779
 H         1.448921         1.882521         1.186038
 H         3.872507         0.617405         1.962035
 H         5.031537        -0.596941        -0.043093
 H         3.883236         0.520808        -1.935412
 H         3.630618        -1.344196        -2.007621
 H         1.701002        -1.042068         1.836363
