19
Iteration:  2369charge 0 multiplicity 1
 C         0.057379        -0.146014        -0.057027
 C         1.591099        -0.007146         0.048327
 C         2.185679         1.417545         0.451630
 C         3.341545         0.479103         1.085399
 C         3.927706        -0.522251        -0.015581
 C         3.535449        -0.389270        -1.446401
 O         2.070857        -0.418657        -1.337508
 O         3.211985        -1.712109         0.648936
 C         2.431355        -0.705629         1.162627
 H        -0.440364         0.062769         0.992110
 H        -0.266120         0.662116        -0.673900
 H        -0.096849        -1.235017        -0.308652
 H         2.491948         2.066909        -0.334744
 H         1.642831         1.731615         1.290374
 H         3.991635         0.672071         1.881826
 H         5.056211        -0.555363         0.209525
 H         4.099193         0.514373        -1.879224
 H         3.811413        -1.282892        -2.121952
 H         1.800388        -0.979876         2.017198
