19
Iteration:  1882
 C        -0.012075         0.042642        -0.004441
 C         1.493214        -0.019113        -0.076523
 C         2.198474         1.298295         0.363789
 C         3.253664         0.463526         1.065851
 C         4.063946        -0.525469         0.043649
 C         3.579810        -0.362617        -1.284620
 O         1.990919        -0.531234        -1.360242
 O         3.394459        -1.659600         0.638042
 C         2.412251        -0.789267         1.167296
 H        -0.548149         0.044353         0.854693
 H        -0.291412         0.931994        -0.591096
 H        -0.291984        -0.812118        -0.624960
 H         2.613608         1.969659        -0.403860
 H         1.692014         1.994169         1.140736
 H         3.759784         0.854081         1.993604
 H         5.107599        -0.402512         0.074837
 H         3.695420         0.711929        -1.530109
 H         3.758762        -1.164293        -1.905667
 H         1.931394        -1.298509         2.049713
