19
Iteration:   380charge 0 multiplicity 1
 C        -0.003765        -0.061007         0.004124
 C         1.488667         0.013776        -0.051744
 C         2.212104         1.301670         0.360801
 C         3.291688         0.422447         1.124847
 C         4.073887        -0.482687         0.076492
 C         3.536055        -0.347915        -1.332889
 O         1.995683        -0.403508        -1.384112
 O         3.447303        -1.691440         0.629598
 C         2.319391        -0.783706         1.123960
 H        -0.174082        -0.048359         1.084757
 H        -0.543139         0.818162        -0.388801
 H        -0.440761        -1.015165        -0.475535
 H         2.356505         1.987648        -0.488818
 H         1.673076         1.786340         1.110918
 H         3.821492         0.699445         2.060757
 H         5.135742        -0.526589         0.036922
 H         3.870644         0.536222        -1.991298
 H         3.847132        -1.404637        -1.793584
 H         1.815107        -0.985145         2.050971
