19
Iteration:  2619charge 0 multiplicity 1
 C         0.032286         0.012463        -0.108007
 C         1.542163        -0.021150         0.031030
 C         2.185520         1.299767         0.452338
 C         3.342490         0.476112         1.120294
 C         4.052788        -0.489300         0.054980
 C         3.537567        -0.389344        -1.385606
 O         2.002848        -0.468642        -1.310119
 O         3.314866        -1.696296         0.543686
 C         2.381877        -0.802502         1.234448
 H        -0.467128         0.433890         0.926997
 H        -0.028400         0.708877        -0.844188
 H        -0.349690        -1.072217        -0.441246
 H         2.282517         2.133181        -0.250855
 H         1.548503         1.867815         1.234298
 H         3.948118         1.196923         1.677472
 H         5.101376        -0.759213        -0.032382
 H         3.827974         0.538916        -1.841297
 H         3.774430        -1.156180        -2.215037
 H         1.845667        -1.212734         2.062984
