19
Iteration:  4493
 C         0.007857        -0.169069        -0.059011
 C         1.516162         0.045285        -0.029707
 C         2.323785         1.418505         0.566037
 C         3.309380         0.368821         1.047913
 C         4.069200        -0.523450        -0.065907
 C         3.449770        -0.339123        -1.377619
 O         2.057172        -0.443997        -1.230862
 O         3.325368        -1.662124         0.564615
 C         2.339109        -0.728628         1.157027
 H        -0.473437         0.355802        -0.927561
 H        -0.151141        -1.180948        -0.321817
 H        -0.699705         0.238419         0.780994
 H         2.500461         2.204741        -0.123836
 H         1.672860         1.768120         1.290273
 H         3.948943         0.548192         1.868923
 H         5.153186        -0.595116        -0.133537
 H         3.669269         0.661938        -1.873060
 H         3.708320        -1.086715        -2.053890
 H         1.833745        -1.005477         2.095417
