19
Iteration:  3354
 C         0.002572         0.019622        -0.115077
 C         1.474312        -0.007559        -0.084266
 C         2.237841         1.297469         0.478886
 C         3.351435         0.493971         1.009821
 C         4.008904        -0.491042         0.053974
 C         3.450596        -0.305921        -1.324498
 O         1.990249        -0.531828        -1.296314
 O         3.440908        -1.730676         0.636045
 C         2.409576        -0.791491         1.145293
 H        -0.354442         0.432262         0.770172
 H        -0.258168         0.676767        -0.902863
 H        -0.465326        -1.004762        -0.108315
 H         2.393195         2.231068        -0.176091
 H         1.628475         1.525155         1.389715
 H         3.930503         0.817559         1.929520
 H         5.147059        -0.622312         0.106808
 H         3.677228         0.803883        -1.696146
 H         3.831474        -1.112489        -1.971025
 H         1.814398        -1.056391         2.054178
