19
Iteration:  2706
 C         0.015696        -0.148374         0.011362
 C         1.482093         0.064406        -0.015106
 C         2.247624         1.371439         0.436349
 C         3.315406         0.453086         1.068705
 C         4.026693        -0.572303         0.068848
 C         3.538689        -0.331893        -1.376462
 O         2.091192        -0.436241        -1.255513
 O         3.277558        -1.659797         0.529572
 C         2.349604        -0.768805         1.093918
 H        -0.470891         0.064355         1.033122
 H        -0.421436         0.429473        -0.688352
 H        -0.358310        -1.072046        -0.453853
 H         2.526988         2.042813        -0.383848
 H         1.812580         2.049940         1.217479
 H         4.114320         0.682390         1.762346
 H         5.004259        -0.889409         0.262333
 H         3.954737         0.716917        -1.618563
 H         3.849800        -1.089070        -2.125825
 H         1.839546        -1.129479         1.962127
