19
Iteration:  4046
 C         0.029855        -0.133466        -0.090156
 C         1.485319        -0.004141        -0.011054
 C         2.268695         1.368601         0.439666
 C         3.373263         0.379236         0.966351
 C         4.056043        -0.534019         0.018897
 C         3.440876        -0.274384        -1.338165
 O         2.012520        -0.435191        -1.223002
 O         3.326304        -1.693607         0.637502
 C         2.376636        -0.711505         1.139422
 H        -0.541833         0.804793        -0.357674
 H        -0.077970        -0.782697        -0.969182
 H        -0.409925        -0.634059         0.808160
 H         2.616971         2.224720        -0.077173
 H         1.598332         1.715524         1.187724
 H         3.976379         0.572894         1.899639
 H         5.148259        -0.562623        -0.030985
 H         3.664071         0.749997        -1.718731
 H         3.857803        -0.962376        -2.092081
 H         1.840527        -1.071540         2.026202
