19
Iteration:  3139charge 0 multiplicity 1
 C         0.077515        -0.191340        -0.114784
 C         1.506193         0.059683         0.049203
 C         2.198912         1.367852         0.466977
 C         3.291487         0.478463         1.077034
 C         3.965639        -0.523566        -0.016821
 C         3.516821        -0.422309        -1.420708
 O         2.080547        -0.349504        -1.276978
 O         3.293262        -1.693217         0.643147
 C         2.402739        -0.740096         1.175601
 H        -0.512940        -0.381366         0.747489
 H        -0.500966         0.691698        -0.587514
 H        -0.108419        -1.076902        -0.630319
 H         2.597897         2.052691        -0.281598
 H         1.811077         1.998896         1.259612
 H         4.145838         0.863363         1.730463
 H         5.049091        -0.684406         0.085344
 H         3.952564         0.378173        -2.169534
 H         3.646697        -1.447027        -1.952608
 H         1.887031        -0.972379         2.150915
