19
Iteration:  3616
 C         0.016356        -0.008509        -0.126258
 C         1.528964        -0.052783         0.068148
 C         2.165736         1.293248         0.411136
 C         3.382605         0.439239         1.000780
 C         4.052923        -0.553509         0.013417
 C         3.510562        -0.334962        -1.382908
 O         1.996459        -0.407073        -1.230473
 O         3.370157        -1.649680         0.626652
 C         2.369629        -0.797926         1.191360
 H        -0.501731         0.591787         0.567061
 H        -0.112884         0.374139        -1.128210
 H        -0.334685        -1.106384        -0.155634
 H         2.333116         2.028326        -0.392841
 H         1.555677         1.788173         1.198202
 H         3.900050         0.780067         1.898850
 H         5.151122        -0.624083         0.041780
 H         3.721297         0.592273        -1.821123
 H         3.659940        -1.140592        -1.988854
 H         1.906208        -1.115214         2.143153
