19
Iteration:  2459
 C        -0.034594        -0.035211        -0.005984
 C         1.462677        -0.008266        -0.036484
 C         2.285736         1.374082         0.454977
 C         3.287138         0.488388         1.090564
 C         4.058058        -0.535547         0.051203
 C         3.557178        -0.321906        -1.366898
 O         2.094392        -0.576781        -1.317918
 O         3.328828        -1.691723         0.580341
 C         2.320864        -0.743175         1.105141
 H        -0.418281         0.359018         0.916680
 H        -0.505118         0.774320        -0.711195
 H        -0.541520        -1.003794         0.055961
 H         2.598697         2.031454        -0.408323
 H         1.763907         1.913565         1.239536
 H         3.853845         0.751444         1.962502
 H         5.167113        -0.595094         0.172207
 H         3.810566         0.668100        -1.928482
 H         3.976566        -0.965307        -2.132160
 H         1.742920        -1.187242         1.926519
