19
Iteration:   537charge 0 multiplicity 1
 C         0.079545        -0.033389        -0.237830
 C         1.515571        -0.016410         0.050888
 C         2.157936         1.259507         0.471119
 C         3.341006         0.489375         1.067358
 C         4.091006        -0.576603        -0.022537
 C         3.440200        -0.316400        -1.413362
 O         1.972845        -0.422807        -1.207701
 O         3.355266        -1.672959         0.648501
 C         2.454588        -0.780141         1.235141
 H        -0.642643        -0.128709         0.635479
 H        -0.141319         0.867612        -0.874740
 H        -0.102992        -0.910656        -0.901757
 H         2.348073         1.996066        -0.300241
 H         1.551090         1.688168         1.400051
 H         3.966852         0.960087         1.864295
 H         5.235044        -0.669176         0.013011
 H         3.482968         0.718369        -1.678006
 H         3.610123        -1.065908        -2.310334
 H         1.949647        -1.158364         2.103042
