19
Iteration:  3958
 C         0.033075        -0.021170        -0.106777
 C         1.503912        -0.042653        -0.015354
 C         2.225966         1.271452         0.507690
 C         3.387502         0.427125         1.050033
 C         4.017786        -0.466925         0.027525
 C         3.394934        -0.287576        -1.404805
 O         2.027264        -0.439094        -1.328191
 O         3.387112        -1.716247         0.645825
 C         2.382642        -0.769958         1.146315
 H        -0.466589         0.581238        -0.953702
 H        -0.416906        -1.091844        -0.160683
 H        -0.273993         0.394721         0.849628
 H         2.532947         2.061770        -0.141401
 H         1.672484         1.641827         1.346856
 H         3.985643         0.773520         1.988242
 H         5.121177        -0.599542         0.142513
 H         3.613063         0.648438        -1.824670
 H         3.846832        -1.066724        -2.072368
 H         1.870028        -1.105411         2.089767
