19
Iteration:  1773charge 0 multiplicity 1
 C        -0.004062        -0.112240        -0.086683
 C         1.543731         0.003625        -0.096777
 C         2.216421         1.321948         0.468796
 C         3.384243         0.490549         1.070811
 C         4.095237        -0.529161         0.072340
 C         3.512713        -0.450297        -1.351534
 O         1.972812        -0.384861        -1.314051
 O         3.306694        -1.678696         0.673615
 C         2.378026        -0.671667         1.076285
 H        -0.514699         0.301550         0.758957
 H        -0.445679         0.298131        -1.148794
 H        -0.266052        -1.219089        -0.133588
 H         2.384115         2.164620        -0.242915
 H         1.541704         1.756483         1.324973
 H         3.990454         0.755982         1.977285
 H         5.133192        -0.627584         0.305174
 H         3.773676         0.406969        -1.978631
 H         3.897647        -1.344278        -1.738168
 H         1.980413        -1.026127         2.086667
