19
Iteration:  3526charge 0 multiplicity 1
 C        -0.058731        -0.031030        -0.039283
 C         1.518856        -0.041767        -0.008589
 C         2.221402         1.245877         0.471773
 C         3.356628         0.450057         0.975788
 C         4.064794        -0.505234         0.043974
 C         3.485234        -0.325020        -1.393104
 O         2.059767        -0.423887        -1.319993
 O         3.355856        -1.666859         0.669820
 C         2.359001        -0.755649         1.130168
 H        -0.460914         0.025171         0.989325
 H        -0.509872         0.762269        -0.602121
 H        -0.392198        -0.954879        -0.689061
 H         2.496765         1.989394        -0.310709
 H         1.752421         1.897845         1.193588
 H         3.923942         0.746388         1.876515
 H         5.173759        -0.784598         0.039410
 H         3.811377         0.736729        -1.578863
 H         3.762921        -1.250656        -1.966637
 H         1.890402        -1.084428         2.086521
