19
Iteration:  1624charge 0 multiplicity 1
 C         0.092026        -0.149320         0.006533
 C         1.570577        -0.011427        -0.127420
 C         2.256535         1.351006         0.389879
 C         3.312693         0.530353         1.053617
 C         4.007360        -0.542100         0.123523
 C         3.482488        -0.351921        -1.359018
 O         2.046626        -0.370949        -1.343127
 O         3.342265        -1.756516         0.663775
 C         2.245545        -0.746656         1.121155
 H        -0.186795         0.510459         0.813065
 H        -0.444088         0.188465        -0.887670
 H        -0.229233        -1.192078         0.287534
 H         2.440577         2.173595        -0.452487
 H         1.778906         1.934990         1.217994
 H         3.873754         0.899471         1.958133
 H         5.154063        -0.666595         0.101648
 H         3.921253         0.592611        -1.687898
 H         3.795377        -1.222683        -2.071055
 H         1.530340        -1.060965         1.893669
