19
Iteration:   202
 C         0.001250        -0.240897        -0.095743
 C         1.506081         0.038665        -0.030471
 C         2.237123         1.376790         0.434367
 C         3.408825         0.450725         1.029254
 C         4.068789        -0.605254         0.033079
 C         3.497016        -0.311422        -1.396880
 O         2.037175        -0.412910        -1.240325
 O         3.297348        -1.628719         0.643585
 C         2.362903        -0.729564         1.157514
 H        -0.406250        -0.247308         0.942232
 H        -0.522640         0.641248        -0.544691
 H        -0.353223        -1.026951        -0.819424
 H         2.330230         2.226543        -0.337454
 H         1.736054         1.689565         1.283511
 H         4.035937         0.949968         1.861644
 H         5.138729        -0.735456         0.136708
 H         3.647329         0.703611        -1.644097
 H         3.722588        -1.150326        -2.197652
 H         1.800866        -1.053900         2.100137
