19
Iteration:   776charge 0 multiplicity 1
 C         0.003209        -0.220425        -0.211150
 C         1.501877         0.044189         0.072763
 C         2.240083         1.297705         0.452462
 C         3.447887         0.507878         1.033680
 C         4.022266        -0.544524        -0.019811
 C         3.488053        -0.370582        -1.360168
 O         2.010606        -0.387199        -1.310781
 O         3.233765        -1.659848         0.679362
 C         2.414761        -0.699623         1.242625
 H        -0.636466         0.275041         0.599394
 H        -0.482953         0.122253        -1.142583
 H         0.151723        -1.325036        -0.297799
 H         2.290275         2.026514        -0.418442
 H         1.820071         1.751810         1.441668
 H         4.103357         1.063357         1.815661
 H         5.173388        -0.842936        -0.000809
 H         3.846810         0.599074        -1.816278
 H         3.963088        -1.111170        -1.975282
 H         1.900557        -0.899847         2.181126
