19
Iteration:   699charge 0 multiplicity 1
 C         0.045891         0.035548        -0.043084
 C         1.523460         0.047132        -0.055954
 C         2.166793         1.284611         0.363231
 C         3.252707         0.441630         1.040360
 C         4.026251        -0.526534         0.047262
 C         3.454024        -0.315789        -1.334260
 O         2.047487        -0.502196        -1.265926
 O         3.457286        -1.666762         0.676806
 C         2.361051        -0.853953         1.092375
 H        -0.406437        -0.029999         0.982628
 H        -0.305585         0.823467        -0.702191
 H        -0.241453        -0.909759        -0.523460
 H         2.475091         2.023386        -0.380368
 H         1.575915         1.876544         1.088141
 H         3.792259         0.824484         1.942372
 H         5.148074        -0.480119         0.164441
 H         3.790289         0.748730        -1.775538
 H         3.787662        -1.199585        -1.797059
 H         1.811918        -1.251035         1.913487
