19
Iteration:   679
 C        -0.038740        -0.064800        -0.250081
 C         1.490400        -0.068681         0.027946
 C         2.224538         1.338467         0.488140
 C         3.378910         0.513993         1.055835
 C         4.076285        -0.472734         0.007124
 C         3.469193        -0.374441        -1.345378
 O         1.999407        -0.482871        -1.229576
 O         3.372022        -1.717178         0.604818
 C         2.397968        -0.717459         1.204250
 H        -0.564967         0.085663         0.745812
 H        -0.150200         0.815808        -0.951181
 H        -0.421452        -1.018269        -0.747858
 H         2.347980         1.986635        -0.311487
 H         1.679130         1.831658         1.352453
 H         3.989560         0.838777         1.977317
 H         5.245072        -0.509297         0.026104
 H         3.656947         0.736826        -1.605667
 H         3.717801        -1.285044        -2.080717
 H         2.038122        -1.060014         2.145056
