19
Iteration:  3131
 C         0.030340        -0.213407        -0.147697
 C         1.613922         0.042152         0.008587
 C         2.232916         1.358303         0.498365
 C         3.335779         0.552987         1.119681
 C         3.981124        -0.536575        -0.051495
 C         3.438430        -0.459704        -1.394496
 O         2.092183        -0.328568        -1.267263
 O         3.267440        -1.699639         0.643688
 C         2.371855        -0.713672         1.157370
 H        -0.209194        -0.391987         0.979224
 H        -0.533913         0.595981        -0.483313
 H        -0.281991        -1.038577        -0.795869
 H         2.379148         2.004416        -0.410428
 H         1.527796         1.893547         1.261173
 H         4.078873         0.815440         1.843404
 H         5.162611        -0.566616        -0.081282
 H         3.989558         0.287694        -1.931434
 H         3.702466        -1.385884        -1.939859
 H         1.840757        -1.038309         2.059897
