19
Iteration:  3705charge 0 multiplicity 1
 C         0.028454        -0.243023        -0.049918
 C         1.507734        -0.005875         0.016824
 C         2.266473         1.321165         0.408730
 C         3.435129         0.519081         0.948812
 C         4.039042        -0.591349         0.002489
 C         3.489327        -0.395233        -1.368808
 O         2.076355        -0.318219        -1.267411
 O         3.210759        -1.686568         0.677413
 C         2.341817        -0.624232         1.159806
 H        -0.418717        -0.545580         0.945738
 H        -0.545280         0.715009        -0.376966
 H        -0.219162        -0.984543        -0.733269
 H         2.359325         1.908363        -0.526297
 H         1.730026         1.931890         1.194237
 H         3.984120         0.847869         1.899620
 H         5.143247        -0.825568         0.018103
 H         3.962318         0.590936        -1.658880
 H         3.757067        -1.240298        -2.038461
 H         1.819531        -1.003668         2.107199
