19
Iteration:   746charge 0 multiplicity 1
 C         0.097601        -0.141597         0.036274
 C         1.547077         0.051946        -0.072051
 C         2.217303         1.357666         0.311523
 C         3.262680         0.440330         1.068469
 C         4.048202        -0.504294         0.063548
 C         3.529427        -0.398855        -1.308624
 O         2.069364        -0.393465        -1.300475
 O         3.295355        -1.682805         0.610470
 C         2.286642        -0.762494         1.095244
 H        -0.098066         0.006191         1.111121
 H        -0.644250         0.330257        -0.677191
 H        -0.109405        -1.259012         0.104017
 H         2.463105         1.965359        -0.490311
 H         1.691250         2.016494         1.021668
 H         3.887957         0.828722         1.922186
 H         5.193544        -0.556500         0.161599
 H         3.767003         0.728196        -1.537727
 H         3.977484        -1.238786        -1.997476
 H         1.630536        -1.032643         1.889618
