19
Iteration:  3409
 C         0.033655        -0.230031        -0.002860
 C         1.476963         0.102546        -0.064651
 C         2.258360         1.374922         0.454772
 C         3.404554         0.496206         1.072211
 C         4.030749        -0.578669         0.020052
 C         3.469396        -0.402038        -1.322842
 O         2.034878        -0.286870        -1.356563
 O         3.276298        -1.706968         0.616778
 C         2.382090        -0.763228         1.141135
 H        -0.573387         0.312467         0.628166
 H        -0.399838        -0.242836        -0.960898
 H        -0.007691        -1.331786         0.169113
 H         2.531982         2.159794        -0.340664
 H         1.578769         1.954046         1.135132
 H         4.040298         0.678507         1.983460
 H         5.129877        -0.941048         0.019643
 H         3.924741         0.598200        -1.537114
 H         3.873697        -1.136660        -2.014649
 H         1.714230        -1.058532         1.982978
