19
Iteration:   514
 C        -0.015783        -0.074323        -0.079576
 C         1.507809        -0.031488        -0.005139
 C         2.217732         1.344321         0.443302
 C         3.332150         0.464805         1.060745
 C         3.992567        -0.490987         0.023363
 C         3.526409        -0.361036        -1.315302
 O         2.039511        -0.394717        -1.306797
 O         3.404505        -1.730271         0.600965
 C         2.355497        -0.761463         1.121861
 H        -0.443618        -0.063666         0.993187
 H        -0.418943         0.781271        -0.672187
 H        -0.404462        -1.016059        -0.512964
 H         2.349119         2.077507        -0.335392
 H         1.679254         1.770550         1.366531
 H         3.944346         0.721516         1.896051
 H         5.105184        -0.464246         0.042904
 H         3.769265         0.576476        -1.747934
 H         3.935191        -1.321176        -1.906859
 H         1.849637        -1.062151         1.981540
