19
Iteration:  4259charge 0 multiplicity 1
 C         0.092289        -0.036017        -0.099431
 C         1.554651        -0.054074        -0.036920
 C         2.251435         1.314811         0.475970
 C         3.379211         0.503827         1.075682
 C         3.975329        -0.516805         0.037446
 C         3.428528        -0.308275        -1.319828
 O         1.981405        -0.533879        -1.296579
 O         3.310474        -1.670987         0.556697
 C         2.451142        -0.785297         1.203442
 H        -0.290139         0.976505        -0.444426
 H        -0.229151        -0.763056        -0.971269
 H        -0.329714        -0.109314         0.871703
 H         2.337851         2.030465        -0.282506
 H         1.634215         1.673136         1.285441
 H         3.884568         0.988477         2.018281
 H         5.093294        -0.480205        -0.166149
 H         3.607206         0.813906        -1.599686
 H         3.720693        -1.030076        -2.130753
 H         1.774751        -1.169585         2.026767
