19
Iteration:   238
 C         0.099665        -0.137681         0.058906
 C         1.584898        -0.002183        -0.053995
 C         2.233177         1.378175         0.312685
 C         3.210136         0.459049         1.144457
 C         4.017277        -0.527382         0.084314
 C         3.490317        -0.299060        -1.381595
 O         2.061290        -0.453527        -1.308638
 O         3.322965        -1.662364         0.576453
 C         2.316131        -0.801074         1.142021
 H        -0.170551        -0.122384         1.096247
 H        -0.324971         0.744440        -0.413034
 H        -0.324270        -1.193942        -0.245088
 H         2.651943         2.028638        -0.558442
 H         1.642124         2.118297         0.962099
 H         3.936879         0.928871         1.814090
 H         5.077167        -0.787733         0.240610
 H         3.808340         0.648190        -1.743089
 H         3.840072        -0.941259        -2.232762
 H         1.757164        -1.329352         1.916941
