19
Iteration:  4010charge 0 multiplicity 1
 C         0.083821        -0.213193         0.050870
 C         1.560610        -0.026632        -0.015729
 C         2.195681         1.302888         0.386415
 C         3.322377         0.413036         1.048279
 C         4.033355        -0.536914        -0.006697
 C         3.532973        -0.361638        -1.347894
 O         2.013686        -0.233452        -1.384895
 O         3.256464        -1.676056         0.640045
 C         2.357737        -0.725332         1.170038
 H        -0.397322         0.784266        -0.056645
 H        -0.201579        -0.855313        -0.844801
 H        -0.289176        -0.676661         0.900497
 H         2.568170         2.112518        -0.343490
 H         1.499851         1.688595         1.174437
 H         4.102599         0.793569         1.848529
 H         5.116125        -0.817533         0.132554
 H         4.029682         0.584830        -1.807300
 H         3.769765        -1.254298        -1.887413
 H         1.898898        -0.948902         2.178526
