19
Iteration:  4938charge 0 multiplicity 1
 C         0.041244        -0.225073        -0.026780
 C         1.507325         0.043708        -0.015660
 C         2.308945         1.356339         0.564190
 C         3.437576         0.482534         1.077179
 C         4.015546        -0.569438         0.034532
 C         3.443923        -0.328612        -1.368596
 O         2.047573        -0.402216        -1.299371
 O         3.264177        -1.675435         0.584819
 C         2.304362        -0.710120         1.035810
 H        -0.456503         0.160076        -1.051075
 H        -0.150207        -1.274522        -0.205528
 H        -0.590196         0.291034         0.707412
 H         2.485739         2.186114        -0.100105
 H         1.893030         1.839432         1.450492
 H         4.050068         0.725691         1.925798
 H         5.081130        -0.755824        -0.121952
 H         3.658431         0.652897        -1.987691
 H         3.972460        -1.119973        -1.926161
 H         1.821997        -0.973790         1.939380
