19
Iteration:  3212
 C         0.030995        -0.029022        -0.009460
 C         1.573693        -0.013239        -0.070312
 C         2.244635         1.279602         0.435226
 C         3.289135         0.491738         1.092508
 C         4.065558        -0.470380         0.096172
 C         3.463299        -0.286548        -1.315607
 O         2.047952        -0.503198        -1.298443
 O         3.343004        -1.679768         0.542580
 C         2.367982        -0.791109         1.097719
 H        -0.523337         0.660780         0.590557
 H        -0.509442         0.258727        -0.996597
 H        -0.490109        -1.025692         0.345416
 H         2.619693         1.871421        -0.434781
 H         1.532093         1.867626         1.004819
 H         3.827969         0.652754         2.073021
 H         5.155884        -0.506744         0.100984
 H         3.636386         0.556299        -1.916437
 H         3.800881        -1.245612        -1.674793
 H         1.740175        -1.256124         1.889401
