19
Iteration:   232charge 0 multiplicity 1
 C         0.098266        -0.170740         0.061721
 C         1.576256         0.006808        -0.016979
 C         2.261218         1.384168         0.295840
 C         3.277541         0.452247         1.139773
 C         3.968228        -0.499173         0.087360
 C         3.499094        -0.281908        -1.356437
 O         2.059419        -0.475898        -1.351061
 O         3.280354        -1.689727         0.571094
 C         2.339708        -0.780519         1.146333
 H        -0.313147        -0.218352         1.119416
 H        -0.324230         0.733292        -0.434747
 H        -0.248425        -1.046952        -0.345256
 H         2.511153         1.936725        -0.548243
 H         1.646654         2.107511         0.877029
 H         3.952672         0.829919         1.927819
 H         5.060256        -0.610051         0.210715
 H         3.771843         0.796030        -1.702568
 H         3.926356        -0.927054        -2.119207
 H         1.798076        -1.206857         2.005514
