19
Iteration:  4485
 C        -0.001007        -0.195481        -0.120062
 C         1.550836         0.099520         0.040132
 C         2.270019         1.389971         0.561063
 C         3.398955         0.414151         1.027765
 C         4.048433        -0.561554        -0.047451
 C         3.482974        -0.339422        -1.440180
 O         1.997217        -0.408153        -1.247695
 O         3.323795        -1.678144         0.619567
 C         2.273613        -0.704293         1.127693
 H        -0.487262         0.388624        -0.836879
 H        -0.143630        -1.271980        -0.335937
 H        -0.381778        -0.184176         0.947044
 H         2.611914         2.077006        -0.231361
 H         1.738378         1.841038         1.421519
 H         4.080420         0.487057         1.933711
 H         5.147244        -0.566832         0.016082
 H         3.778152         0.720414        -1.777322
 H         3.745772        -1.118957        -2.140907
 H         1.947956        -1.141985         2.070612
