19
Iteration:  1033charge 0 multiplicity 1
 C         0.076067        -0.053261        -0.238779
 C         1.580479         0.009543        -0.023386
 C         2.125150         1.305119         0.490643
 C         3.359620         0.533867         1.076666
 C         3.975224        -0.546319         0.009920
 C         3.432798        -0.468094        -1.372440
 O         1.966306        -0.392321        -1.247654
 O         3.422826        -1.688706         0.711517
 C         2.450196        -0.759952         1.148845
 H        -0.383268         0.095985         0.769170
 H        -0.437960         0.777980        -0.763586
 H        -0.169137        -0.993948        -0.755612
 H         2.171117         2.163456        -0.259893
 H         1.514095         1.593941         1.451754
 H         3.988012         1.037228         1.825162
 H         5.113473        -0.659515        -0.137933
 H         3.867968         0.414063        -1.850524
 H         3.734330        -1.354167        -1.973823
 H         1.846680        -0.951480         1.986715
