19
Iteration:  2948
 C         0.057664        -0.154373        -0.048717
 C         1.570532         0.044223        -0.002896
 C         2.234443         1.310597         0.436308
 C         3.349012         0.455972         1.089424
 C         3.992782        -0.519725         0.022298
 C         3.525179        -0.312539        -1.405498
 O         2.050140        -0.430451        -1.331432
 O         3.240753        -1.661060         0.593260
 C         2.352806        -0.748550         1.222667
 H        -0.402757        -0.191714         1.026657
 H        -0.329150         0.683582        -0.551049
 H        -0.216885        -1.225157        -0.417591
 H         2.642700         1.998713        -0.308924
 H         1.587848         1.952104         1.009545
 H         4.007063         0.681718         1.929039
 H         5.017190        -0.715291         0.156566
 H         3.796506         0.661058        -1.878477
 H         3.977205        -1.031530        -2.114281
 H         1.737303        -1.175343         2.000166
