19
Iteration:  4446
 C         0.052938        -0.182056         0.042054
 C         1.479326        -0.008084         0.013521
 C         2.164805         1.312208         0.393366
 C         3.342687         0.407696         1.033220
 C         3.976487        -0.564575         0.040066
 C         3.544857        -0.386889        -1.432565
 O         2.077184        -0.197886        -1.337746
 O         3.317626        -1.704677         0.634175
 C         2.397212        -0.735896         1.150096
 H        -0.605842         0.769112         0.033065
 H        -0.366359        -0.941410        -0.688722
 H        -0.120007        -0.547164         1.027671
 H         2.445323         1.913648        -0.510941
 H         1.703013         1.963873         1.177661
 H         4.009117         0.725243         1.852813
 H         5.078897        -0.704701         0.160067
 H         4.030390         0.501291        -1.823485
 H         3.692464        -1.316341        -2.104456
 H         1.779384        -0.945800         2.058494
