19
Iteration:  1754
 C         0.027018        -0.068063        -0.030794
 C         1.525194         0.022163         0.016716
 C         2.253350         1.359225         0.363207
 C         3.216310         0.469424         1.102970
 C         4.018237        -0.515037         0.002867
 C         3.491836        -0.413858        -1.328358
 O         2.108721        -0.467672        -1.343353
 O         3.373315        -1.658371         0.639660
 C         2.305863        -0.777144         1.140129
 H        -0.306420         0.304284         0.919005
 H        -0.521460         0.655897        -0.684958
 H        -0.384026        -1.087882        -0.231350
 H         2.596563         1.971848        -0.389264
 H         1.704766         1.854205         1.158626
 H         3.826180         0.979680         1.882979
 H         5.146402        -0.542389        -0.018690
 H         3.982126         0.411417        -1.829371
 H         3.968927        -1.236475        -1.949357
 H         1.684689        -1.137466         2.004962
