19
Iteration:   392
 C        -0.006662        -0.032503        -0.065539
 C         1.509497        -0.076707        -0.022037
 C         2.221031         1.256240         0.487100
 C         3.298480         0.417361         1.022200
 C         4.065480        -0.429160         0.059185
 C         3.462232        -0.403154        -1.382059
 O         2.011191        -0.399419        -1.309480
 O         3.407941        -1.621230         0.666588
 C         2.379186        -0.774281         1.106265
 H        -0.551622        -0.011145         0.893776
 H        -0.241132         0.843803        -0.679960
 H        -0.368847        -0.928603        -0.605632
 H         2.542347         1.921681        -0.272270
 H         1.787625         1.837850         1.236067
 H         3.755101         0.705843         1.908992
 H         5.119735        -0.462449         0.166965
 H         3.868102         0.507349        -1.989272
 H         3.782705        -1.346716        -1.970396
 H         1.912645        -1.150477         1.943515
