19
Iteration:  4932
 C         0.031876        -0.241837        -0.060243
 C         1.542647         0.019825         0.015409
 C         2.317338         1.425827         0.554674
 C         3.403745         0.464393         1.113923
 C         3.975938        -0.598621         0.033383
 C         3.476072        -0.326913        -1.354647
 O         2.014367        -0.386214        -1.308833
 O         3.256285        -1.690344         0.527892
 C         2.334826        -0.665395         1.040364
 H        -0.344744        -0.029412        -0.967351
 H        -0.143743        -1.361439        -0.036294
 H        -0.499743         0.138193         0.872653
 H         2.540441         2.192200        -0.269267
 H         1.793183         1.829783         1.464034
 H         4.188618         0.891163         1.841403
 H         5.084684        -0.761119         0.032251
 H         3.932839         0.546997        -1.725084
 H         3.829212        -1.177723        -2.039589
 H         1.757280        -0.887796         2.008918
