19
Iteration:  3357
 C         0.006287         0.003329        -0.116361
 C         1.469941         0.000124        -0.060691
 C         2.237073         1.304198         0.478298
 C         3.358935         0.496658         1.033665
 C         4.003120        -0.515125         0.052427
 C         3.440729        -0.303654        -1.325269
 O         1.996594        -0.534110        -1.309716
 O         3.445752        -1.725163         0.614124
 C         2.421313        -0.774168         1.159644
 H        -0.408422         0.521947         0.788865
 H        -0.380752         0.661027        -1.044389
 H        -0.449700        -0.955713        -0.144906
 H         2.304900         2.163621        -0.171045
 H         1.635849         1.544099         1.345839
 H         4.009220         0.829632         1.891902
 H         5.039724        -0.567786         0.135212
 H         3.794343         0.735702        -1.634705
 H         3.790750        -1.142707        -1.906894
 H         1.805115        -1.106430         2.010648
