19
Iteration:  1783charge 0 multiplicity 1
 C         0.031344        -0.187864        -0.156321
 C         1.545744         0.012050         0.010136
 C         2.223157         1.389870         0.476237
 C         3.308209         0.548443         1.075376
 C         4.081174        -0.576622        -0.001554
 C         3.492493        -0.462910        -1.358102
 O         2.016328        -0.350345        -1.305047
 O         3.280434        -1.709854         0.697794
 C         2.436768        -0.713703         1.124513
 H        -0.439743         0.447348         0.587173
 H        -0.393605         0.309197        -1.149368
 H        -0.309883        -1.244056        -0.030560
 H         2.502294         2.285546        -0.182830
 H         1.524965         1.646030         1.382805
 H         3.915612         1.033105         1.869868
 H         5.131897        -0.792039        -0.061179
 H         3.918727         0.446789        -1.927110
 H         3.700499        -1.292802        -2.013588
 H         1.738505        -0.907472         2.005886
