19
Iteration:  3168
 C        -0.004769        -0.105704        -0.092014
 C         1.477626        -0.019497        -0.063218
 C         2.210762         1.284163         0.387398
 C         3.396920         0.463340         1.095916
 C         4.026481        -0.545142         0.047194
 C         3.454475        -0.294696        -1.296318
 O         2.048486        -0.412131        -1.264202
 O         3.349251        -1.710504         0.655017
 C         2.417724        -0.725740         1.068982
 H        -0.390541         0.320313         0.845112
 H        -0.428637         0.568918        -0.934706
 H        -0.426969        -1.219676        -0.164084
 H         2.548975         2.042520        -0.357735
 H         1.713137         1.837568         1.181847
 H         4.032086         0.989705         1.855701
 H         5.071846        -0.794077        -0.053000
 H         3.734763         0.696098        -1.589452
 H         3.691835        -1.098038        -1.947728
 H         1.804274        -0.986179         1.942060
