19
Iteration:  2819charge 0 multiplicity 1
 C         0.096609        -0.211667        -0.027885
 C         1.582788         0.078725        -0.063475
 C         2.264557         1.350240         0.387709
 C         3.346161         0.445380         1.108762
 C         3.998460        -0.567600         0.011429
 C         3.522664        -0.278337        -1.329182
 O         2.025092        -0.322028        -1.340379
 O         3.211680        -1.761733         0.618516
 C         2.329279        -0.747997         1.194969
 H        -0.239206         0.084322         0.978601
 H        -0.454783         0.058645        -0.930643
 H         0.269823        -1.339834        -0.133017
 H         2.521209         2.128022        -0.435806
 H         1.690973         1.789876         1.222082
 H         4.097943         0.853112         1.815340
 H         5.101319        -0.833542         0.169747
 H         3.713371         0.834706        -1.602612
 H         3.594251        -1.033392        -2.214234
 H         1.688900        -0.945043         2.095775
