19
Iteration:  3583
 C        -0.003464        -0.252734        -0.023955
 C         1.586149         0.041456        -0.077379
 C         2.289545         1.363287         0.414910
 C         3.391182         0.458150         1.025413
 C         3.962976        -0.578426         0.042252
 C         3.514904        -0.309454        -1.388354
 O         2.039947        -0.309359        -1.309736
 O         3.235335        -1.682900         0.640481
 C         2.351404        -0.725824         1.179066
 H        -0.605431         0.250449         0.663333
 H        -0.506979        -0.253148        -0.956477
 H        -0.058374        -1.359480         0.398859
 H         2.680568         2.224254        -0.158395
 H         1.691939         1.688470         1.267783
 H         4.043330         0.666494         1.883001
 H         5.055198        -0.781232         0.041230
 H         3.984671         0.512268        -1.800126
 H         3.905267        -1.067747        -1.976181
 H         1.752186        -0.874488         2.082384
