19
Iteration:  3411
 C         0.041433        -0.244055         0.006427
 C         1.479903         0.106213        -0.070556
 C         2.258964         1.371699         0.459050
 C         3.393838         0.506410         1.082884
 C         4.045795        -0.595447         0.020689
 C         3.475734        -0.394289        -1.335314
 O         2.024078        -0.291568        -1.369917
 O         3.265468        -1.708808         0.630587
 C         2.395934        -0.752514         1.138931
 H        -0.551878         0.342253         0.686271
 H        -0.473981        -0.252419        -0.997166
 H        -0.016747        -1.240623         0.131594
 H         2.530104         2.123117        -0.287124
 H         1.571852         1.930609         1.098210
 H         3.992787         0.683383         2.005558
 H         5.042080        -0.950650         0.037516
 H         4.027212         0.635192        -1.566258
 H         3.848107        -1.078657        -2.082615
 H         1.759438        -1.076151         1.980758
