19
Iteration:  1793
 C         0.072038        -0.185958        -0.148463
 C         1.538105         0.046296         0.016841
 C         2.172410         1.387956         0.491339
 C         3.334890         0.501951         1.017610
 C         3.985555        -0.611589         0.005052
 C         3.437284        -0.448870        -1.417062
 O         2.110803        -0.337076        -1.307410
 O         3.325063        -1.703387         0.682185
 C         2.363364        -0.683343         1.239917
 H        -0.512149         0.365935         0.593553
 H        -0.099143         0.075229        -1.236720
 H        -0.192335        -1.243929        -0.036291
 H         2.324560         2.226653        -0.314154
 H         1.719622         1.992703         1.348503
 H         4.030802         0.848938         1.799018
 H         5.053620        -0.758493        -0.042608
 H         4.000480         0.539095        -1.745963
 H         3.575750        -1.306388        -2.099674
 H         1.744869        -1.087768         2.084242
