19
Iteration:  1472
 C         0.056698        -0.159393        -0.046266
 C         1.594542         0.033040        -0.058276
 C         2.316702         1.404828         0.324783
 C         3.348056         0.454344         1.063627
 C         3.970495        -0.605644         0.103629
 C         3.413750        -0.254704        -1.338947
 O         2.039349        -0.486522        -1.297102
 O         3.243262        -1.684115         0.638246
 C         2.389466        -0.768563         1.171149
 H        -0.404763         0.454198         0.819188
 H        -0.345201         0.197599        -1.014016
 H        -0.120248        -1.274919         0.038427
 H         2.764372         2.188948        -0.371325
 H         1.658821         1.803259         1.053924
 H         3.897215         1.020126         1.863958
 H         5.067048        -0.840970         0.122879
 H         3.682041         0.917227        -1.566081
 H         3.960271        -0.770002        -2.132627
 H         1.702065        -1.138604         1.897057
