19
Iteration:  4716
 C         0.128504        -0.074355        -0.089295
 C         1.566900        -0.019870         0.071039
 C         2.239002         1.274404         0.499273
 C         3.381723         0.386446         1.013674
 C         3.976352        -0.528291         0.016953
 C         3.434185        -0.258874        -1.386650
 O         1.975799        -0.356258        -1.358500
 O         3.331285        -1.742755         0.649467
 C         2.379919        -0.720306         1.158414
 H        -0.161139         0.419185        -1.081357
 H        -0.349798        -1.128737        -0.134871
 H        -0.587349         0.238701         0.762592
 H         2.437002         1.960815        -0.316487
 H         1.592619         1.603440         1.312547
 H         3.941315         0.693689         1.925999
 H         5.083169        -0.451688         0.057660
 H         3.661153         0.734189        -1.738823
 H         3.836508        -0.981121        -2.028349
 H         1.818560        -1.135221         1.989802
