19
Iteration:  4295
 C        -0.024549        -0.244262        -0.027771
 C         1.546439        -0.016883         0.013317
 C         2.274800         1.377814         0.485476
 C         3.326785         0.408961         1.001175
 C         4.057699        -0.605350        -0.013832
 C         3.502609        -0.332748        -1.321771
 O         2.026028        -0.252303        -1.284012
 O         3.311924        -1.700197         0.617334
 C         2.338183        -0.700156         1.074862
 H        -0.543827         0.259113        -0.926365
 H        -0.287300        -1.332902        -0.002991
 H        -0.525687         0.046094         0.922134
 H         2.337388         1.987296        -0.461788
 H         2.126490         2.041233         1.330285
 H         3.892578         0.796658         1.864963
 H         5.166007        -0.747024        -0.108613
 H         3.974039         0.667565        -1.676465
 H         3.868087        -1.059522        -1.981827
 H         1.782624        -0.983978         1.974457
