19
Iteration:   186charge 0 multiplicity 1
 C         0.058064        -0.121856        -0.131487
 C         1.526622         0.014219         0.096634
 C         2.114175         1.400531         0.516116
 C         3.305930         0.503232         0.985336
 C         3.999474        -0.556958        -0.038875
 C         3.474343        -0.418465        -1.393960
 O         2.057377        -0.374813        -1.289720
 O         3.383140        -1.743410         0.672200
 C         2.413681        -0.717098         1.163833
 H        -0.566179        -0.286345         0.734622
 H        -0.361647         0.626321        -0.799338
 H         0.040211        -1.061474        -0.687561
 H         2.306892         2.082564        -0.266876
 H         1.595257         1.946554         1.401499
 H         4.011311         0.788400         1.713427
 H         5.109616        -0.683332        -0.021736
 H         3.979934         0.554052        -1.795354
 H         3.682019        -1.218778        -2.017017
 H         1.910197        -1.019466         2.056944
