19
Iteration:  1320
 C        -0.024303        -0.090583        -0.110205
 C         1.487535         0.037169        -0.053085
 C         2.227610         1.379534         0.439397
 C         3.294475         0.449879         1.101924
 C         4.092917        -0.540475         0.001435
 C         3.459498        -0.457339        -1.341370
 O         2.012110        -0.414265        -1.330287
 O         3.430777        -1.711994         0.695442
 C         2.373911        -0.702174         1.139883
 H        -0.402576         0.028043         0.983602
 H        -0.388358         0.767616        -0.653434
 H        -0.410879        -1.039918        -0.496045
 H         2.534252         2.189527        -0.305405
 H         1.637823         1.889973         1.142186
 H         4.017284         0.765281         1.917975
 H         5.178666        -0.612095         0.084144
 H         3.836846         0.527252        -1.838493
 H         3.717916        -1.300759        -1.950445
 H         1.718378        -1.030049         1.943300
