19
Iteration:   515
 C        -0.011741        -0.073332        -0.088575
 C         1.510498        -0.034892         0.001457
 C         2.215147         1.349139         0.444390
 C         3.337300         0.464252         1.048399
 C         3.983349        -0.490511         0.024898
 C         3.513564        -0.359849        -1.310572
 O         2.040836        -0.396616        -1.302257
 O         3.408042        -1.735178         0.601393
 C         2.357933        -0.763026         1.119297
 H        -0.435592        -0.054944         0.974386
 H        -0.417076         0.785177        -0.675771
 H        -0.409659        -1.003693        -0.545986
 H         2.344417         2.071047        -0.350688
 H         1.671960         1.759170         1.397909
 H         3.979170         0.744705         1.897580
 H         5.117452        -0.475488         0.063126
 H         3.788378         0.636397        -1.760629
 H         3.918186        -1.309372        -1.858997
 H         1.853645        -1.068188         2.003768
