19
Iteration:  4933charge 0 multiplicity 1
 C         0.032675        -0.235423        -0.052955
 C         1.535490         0.021524         0.012178
 C         2.316719         1.414173         0.558228
 C         3.411279         0.470247         1.111203
 C         3.980789        -0.597562         0.034701
 C         3.470468        -0.328879        -1.357722
 O         2.020673        -0.390026        -1.306941
 O         3.259242        -1.686535         0.537514
 C         2.325606        -0.671895         1.031059
 H        -0.359673        -0.020468        -0.963688
 H        -0.155635        -1.360764        -0.086381
 H        -0.506134         0.158190         0.826371
 H         2.529161         2.188443        -0.237207
 H         1.823872         1.829688         1.465698
 H         4.175692         0.871724         1.852046
 H         5.078786        -0.756762        -0.007081
 H         3.884084         0.565410        -1.787968
 H         3.864555        -1.142331        -1.998528
 H         1.768490        -0.891548         2.009179
