19
Iteration:  1993
 C         0.076576        -0.106108         0.005611
 C         1.534875        -0.035298        -0.052489
 C         2.299440         1.307952         0.382314
 C         3.308272         0.461114         1.106430
 C         3.977459        -0.506971         0.065377
 C         3.379623        -0.319523        -1.346919
 O         2.069550        -0.394761        -1.368470
 O         3.318600        -1.693515         0.641510
 C         2.364716        -0.784515         1.134739
 H        -0.256536         0.429000         0.808614
 H        -0.364476         0.480851        -0.867936
 H        -0.237984        -1.147155         0.069253
 H         2.750269         1.881561        -0.410730
 H         1.578256         1.852915         1.114894
 H         3.997577         0.729063         1.968273
 H         5.044865        -0.430350        -0.051171
 H         3.870090         0.781863        -1.666575
 H         3.814881        -1.033416        -2.066714
 H         1.761903        -1.255042         1.996486
