19
Iteration:  1798charge 0 multiplicity 1
 C         0.094523        -0.177346        -0.133306
 C         1.548171         0.050710         0.005912
 C         2.153550         1.390615         0.481167
 C         3.373953         0.452957         0.991327
 C         3.936088        -0.627656         0.003219
 C         3.455736        -0.424765        -1.419330
 O         2.089344        -0.315629        -1.288715
 O         3.330792        -1.681535         0.687889
 C         2.326725        -0.678254         1.244621
 H        -0.618133         0.367829         0.510194
 H        -0.131090         0.011941        -1.245869
 H        -0.076581        -1.290206        -0.080347
 H         2.287400         1.978613        -0.377104
 H         1.757581         1.978872         1.320415
 H         4.124942         0.725011         1.753140
 H         5.055881        -0.649547         0.190095
 H         3.910733         0.429402        -1.853059
 H         3.857595        -1.233102        -2.068385
 H         1.905012        -1.113652         2.190371
