19
Iteration:  4170charge 0 multiplicity 1
 C         0.015527        -0.237928        -0.044335
 C         1.502228         0.064076        -0.011073
 C         2.270751         1.434586         0.537289
 C         3.362237         0.498322         0.988575
 C         4.010700        -0.612638        -0.018944
 C         3.499165        -0.310931        -1.320386
 O         2.049469        -0.387296        -1.292371
 O         3.268461        -1.766720         0.515669
 C         2.377830        -0.644037         1.196361
 H        -0.527550         0.015847        -0.954415
 H         0.035378        -1.372523        -0.063555
 H        -0.649451         0.133219         0.837861
 H         2.573811         2.123404        -0.162416
 H         1.744604         1.904758         1.355783
 H         4.004816         0.762501         1.837673
 H         5.097898        -0.740699         0.023336
 H         4.083105         0.592580        -1.725101
 H         3.738278        -1.242679        -1.963325
 H         1.811041        -0.926519         2.111773
