19
Iteration:   225charge 0 multiplicity 1
 C         0.070841        -0.170095         0.062881
 C         1.552582        -0.010590         0.009321
 C         2.283429         1.341196         0.330663
 C         3.359849         0.472564         1.085077
 C         3.955034        -0.472480         0.074714
 C         3.494558        -0.231182        -1.320046
 O         2.059279        -0.487843        -1.372371
 O         3.234391        -1.722947         0.578596
 C         2.372350        -0.730634         1.138669
 H        -0.319689        -0.214770         1.081894
 H        -0.518497         0.591806        -0.470406
 H        -0.152805        -1.060057        -0.681496
 H         2.604555         1.850959        -0.666029
 H         1.649805         1.936909         0.918033
 H         3.872446         0.678843         2.103442
 H         5.044170        -0.403890         0.083620
 H         3.693040         0.779672        -1.597725
 H         4.055810        -1.101641        -1.917519
 H         1.769937        -0.994076         2.073793
