19
Iteration:  3914
 C        -0.150976        -0.082289        -0.030558
 C         1.501945        -0.011097        -0.041166
 C         2.330874         1.309426         0.472843
 C         3.385678         0.386480         1.096753
 C         4.066507        -0.471228         0.028685
 C         3.490688        -0.242615        -1.363516
 O         2.051838        -0.460175        -1.224562
 O         3.302587        -1.690298         0.523863
 C         2.381490        -0.766862         1.105088
 H        -0.435523         0.005641        -1.168112
 H        -0.483349        -1.175288         0.250135
 H        -0.611159         0.703913         0.516243
 H         2.609854         1.893558        -0.370809
 H         1.729800         1.839148         1.162984
 H         4.120910         0.751369         1.892846
 H         5.194878        -0.554182         0.126466
 H         3.840226         0.744270        -1.732487
 H         3.877763        -1.102666        -1.961988
 H         1.873321        -1.082359         2.083218
