19
Iteration:  4747charge 0 multiplicity 1
 C        -0.043737        -0.312088         0.000249
 C         1.558084         0.093244         0.070485
 C         2.275799         1.410820         0.503278
 C         3.353868         0.410112         1.042095
 C         4.084109        -0.609608        -0.008164
 C         3.508603        -0.381543        -1.373665
 O         2.085239        -0.212751        -1.297378
 O         3.215392        -1.693738         0.561187
 C         2.365952        -0.681503         1.066498
 H        -0.625611        -0.115853        -0.901746
 H         0.023921        -1.475400         0.051122
 H        -0.434913         0.368927         0.940499
 H         2.538157         1.965183        -0.406142
 H         1.556179         1.977286         1.071459
 H         3.794834         0.562495         2.120428
 H         5.177311        -0.746193         0.245567
 H         3.991376         0.514818        -1.954869
 H         3.662125        -1.268674        -1.963199
 H         1.737644        -1.339590         1.769723
