19
Iteration:  1724
 C         0.065417        -0.014910        -0.015959
 C         1.558439        -0.021270        -0.016373
 C         2.267164         1.250027         0.262021
 C         3.302311         0.434576         1.115119
 C         4.053568        -0.503462         0.127255
 C         3.422072        -0.286329        -1.309885
 O         2.030163        -0.540780        -1.394791
 O         3.356015        -1.683165         0.642813
 C         2.289351        -0.702925         1.140930
 H        -0.255882        -0.100693         1.086069
 H        -0.303936         0.839925        -0.446874
 H        -0.386181        -0.890897        -0.463560
 H         2.472204         1.967213        -0.631453
 H         1.724798         1.828454         0.992235
 H         3.776694         0.939448         1.943189
 H         5.185355        -0.542003         0.134697
 H         3.737091         0.824719        -1.567396
 H         4.078732        -1.080734        -1.869213
 H         1.754386        -0.999644         2.017942
