19
Iteration:  2448
 C         0.019036         0.010112         0.026919
 C         1.558187         0.001232        -0.064841
 C         2.223892         1.312215         0.415375
 C         3.307614         0.382318         1.042856
 C         4.044663        -0.433881         0.058638
 C         3.494938        -0.332657        -1.349495
 O         2.084817        -0.561767        -1.309500
 O         3.310301        -1.690607         0.597096
 C         2.300710        -0.737270         1.106906
 H        -0.141350         0.234001         1.050625
 H        -0.507027         0.667064        -0.771054
 H        -0.274220        -0.990230        -0.338184
 H         2.597641         2.163796        -0.193404
 H         1.685251         1.779678         1.244461
 H         3.881323         0.841773         1.798785
 H         5.161464        -0.499960         0.113342
 H         3.809790         0.722525        -1.676152
 H         3.864726        -1.225655        -1.826829
 H         1.674386        -1.008383         1.961282
