19
Iteration:  1788
 C         0.051254        -0.197014        -0.168882
 C         1.534235         0.032744         0.032621
 C         2.204378         1.402987         0.483746
 C         3.305685         0.537830         1.047897
 C         4.036393        -0.588066         0.003342
 C         3.467317        -0.453855        -1.394781
 O         2.078890        -0.348632        -1.314712
 O         3.302411        -1.715870         0.687634
 C         2.409104        -0.703938         1.197515
 H        -0.447917         0.418157         0.617470
 H        -0.214043         0.206826        -1.142264
 H        -0.277245        -1.229619         0.004766
 H         2.392132         2.232372        -0.145634
 H         1.646012         1.802114         1.311507
 H         3.935302         0.983041         1.822938
 H         5.130238        -0.827858        -0.180493
 H         3.947039         0.450614        -1.725689
 H         3.474335        -1.335456        -2.100235
 H         1.678521        -0.955529         1.961965
