19
Iteration:  1521charge 0 multiplicity 1
 C         0.020876        -0.100245        -0.084420
 C         1.503058         0.027188        -0.032087
 C         2.163147         1.374856         0.435094
 C         3.300879         0.514350         1.007214
 C         4.035365        -0.577265         0.067096
 C         3.479309        -0.516865        -1.256432
 O         2.043499        -0.292505        -1.328944
 O         3.406312        -1.752887         0.621815
 C         2.369951        -0.691320         1.108704
 H        -0.119178        -0.118297         1.050175
 H        -0.603848         0.731717        -0.535404
 H        -0.165350        -1.082671        -0.514535
 H         2.298709         1.975267        -0.404503
 H         1.558089         1.869676         1.274031
 H         4.012408         0.831948         1.763513
 H         5.115709        -0.541075         0.017461
 H         3.960081         0.215430        -1.823962
 H         3.859752        -1.426567        -1.743758
 H         1.878469        -1.014239         2.091142
