19
Iteration:  2504
 C         0.040988        -0.165691        -0.107796
 C         1.585681        -0.000075         0.002621
 C         2.245186         1.403115         0.474090
 C         3.383486         0.427284         1.054878
 C         3.975320        -0.562957         0.030263
 C         3.446683        -0.384531        -1.405872
 O         2.014252        -0.330815        -1.311363
 O         3.310364        -1.684766         0.685491
 C         2.361619        -0.764877         1.134301
 H        -0.575855         0.337712         0.580503
 H        -0.310921         0.232032        -1.189319
 H        -0.231493        -1.208653         0.018435
 H         2.512142         2.216587        -0.259088
 H         1.731960         1.899617         1.317798
 H         4.055218         0.805909         1.859725
 H         5.043823        -0.743359         0.128179
 H         4.001873         0.508680        -1.824753
 H         3.772257        -1.149243        -2.063737
 H         1.800524        -0.996716         2.063529
