19
Iteration:  1333charge 0 multiplicity 1
 C        -0.043682        -0.113133        -0.030668
 C         1.566927         0.074267        -0.008646
 C         2.240076         1.431449         0.402482
 C         3.363782         0.459934         1.063896
 C         4.016599        -0.563765         0.039374
 C         3.530838        -0.374581        -1.415843
 O         2.072478        -0.517868        -1.306481
 O         3.277338        -1.674003         0.680610
 C         2.351029        -0.725081         1.131430
 H        -0.544650        -0.331202         0.902153
 H        -0.595669         0.581490        -0.495250
 H        -0.067710        -0.948158        -0.686247
 H         2.538646         2.152629        -0.385510
 H         1.608986         1.878135         1.169913
 H         3.841167         0.637904         2.006880
 H         5.029539        -0.733224        -0.065576
 H         3.825738         0.725030        -1.814666
 H         3.989057        -1.057195        -2.115659
 H         1.934022        -1.026527         2.120691
