19
Iteration:  3266
 C         0.078092        -0.242921        -0.081866
 C         1.578217         0.065523        -0.048446
 C         2.189566         1.351124         0.476906
 C         3.381689         0.494791         0.981362
 C         3.984241        -0.541202         0.007300
 C         3.487146        -0.419491        -1.388092
 O         2.012822        -0.303065        -1.370298
 O         3.254072        -1.767195         0.730634
 C         2.446788        -0.682916         1.242583
 H        -0.370124        -0.137073         0.870921
 H        -0.459036         0.563727        -0.670677
 H        -0.187409        -1.134658        -0.829122
 H         2.352868         2.256059        -0.203451
 H         1.695620         1.697686         1.424660
 H         3.984995         0.791748         1.905655
 H         5.126729        -0.607169        -0.034043
 H         3.710644         0.645796        -1.730891
 H         3.789785        -1.232019        -2.075097
 H         1.799363        -0.939176         2.105713
