19
Iteration:  3255
 C         0.094393        -0.159620        -0.124862
 C         1.542760        -0.014674        -0.018341
 C         2.169554         1.286528         0.460439
 C         3.436350         0.451680         1.036603
 C         4.016489        -0.538514         0.034564
 C         3.410420        -0.340830        -1.382873
 O         1.994866        -0.294458        -1.347559
 O         3.287885        -1.752238         0.742426
 C         2.412007        -0.658052         1.136243
 H        -0.435730        -0.126114         0.795526
 H        -0.289216         0.581977        -0.880025
 H        -0.062082        -1.316895        -0.350263
 H         2.216036         2.107886        -0.328124
 H         1.584666         1.658449         1.348075
 H         4.096859         0.813643         1.883078
 H         5.131530        -0.778506         0.015832
 H         3.989252         0.506283        -1.905916
 H         3.778166        -1.224175        -1.925699
 H         1.942101        -0.710848         2.134723
