19
Iteration:  1963charge 0 multiplicity 1
 C         0.047036        -0.225357         0.067519
 C         1.488512         0.042186         0.016263
 C         2.262415         1.351870         0.366885
 C         3.315291         0.443066         1.056689
 C         4.091935        -0.625406         0.096694
 C         3.523317        -0.381355        -1.348904
 O         2.076423        -0.326040        -1.364427
 O         3.269951        -1.638411         0.601340
 C         2.286527        -0.707479         1.061997
 H        -0.340048         0.307345         1.004781
 H        -0.442831         0.121990        -0.838673
 H        -0.224079        -1.276223         0.187132
 H         2.535451         2.039324        -0.481411
 H         1.798585         2.018483         1.155314
 H         3.705711         0.641290         2.027712
 H         5.228297        -0.672975         0.310932
 H         3.935689         0.541345        -1.803691
 H         3.750499        -0.876973        -2.320567
 H         1.792067        -1.100297         1.963213
