19
Iteration:  2298
 C         0.014404        -0.023319        -0.090618
 C         1.549871        -0.030242        -0.024936
 C         2.252988         1.261589         0.477271
 C         3.383347         0.460570         1.101697
 C         4.026099        -0.479617        -0.003499
 C         3.438300        -0.400079        -1.406245
 O         1.997283        -0.430269        -1.317835
 O         3.330902        -1.649342         0.652558
 C         2.374540        -0.762056         1.154296
 H        -0.384295         0.536128         0.642363
 H        -0.203169         0.555064        -1.029450
 H        -0.310757        -1.023598        -0.045246
 H         2.317635         1.908059        -0.373345
 H         1.693497         1.592950         1.380545
 H         3.950436         0.880035         2.062189
 H         5.016597        -0.749493         0.026970
 H         3.789289         0.637137        -1.832525
 H         4.005566        -1.126603        -1.924538
 H         1.861129        -1.179413         2.046165
