19
Iteration:  3617
 C         0.012547        -0.007191        -0.124285
 C         1.525926        -0.057419         0.058949
 C         2.181286         1.284139         0.413803
 C         3.377143         0.439200         1.004680
 C         4.043111        -0.543237         0.009108
 C         3.503697        -0.330208        -1.376500
 O         2.002902        -0.411656        -1.227878
 O         3.371075        -1.651204         0.627655
 C         2.374448        -0.794238         1.193506
 H        -0.502197         0.616362         0.593955
 H        -0.124768         0.405330        -1.160002
 H        -0.323674        -1.076787        -0.185072
 H         2.328858         2.044964        -0.387469
 H         1.494185         1.792395         1.174332
 H         3.911177         0.782699         1.896734
 H         5.149161        -0.616987         0.054823
 H         3.734655         0.552672        -1.864170
 H         3.651447        -1.154993        -2.015666
 H         1.945089        -1.154695         2.155076
