19
Iteration:  1283charge 0 multiplicity 1
 C         0.002296        -0.022812        -0.079397
 C         1.527097        -0.054763        -0.032649
 C         2.116085         1.341048         0.492723
 C         3.253133         0.442907         1.121736
 C         4.062596        -0.521208         0.008864
 C         3.474289        -0.491126        -1.438041
 O         2.059465        -0.332703        -1.350184
 O         3.438800        -1.697501         0.677047
 C         2.426133        -0.749931         1.205110
 H        -0.362547         0.745922         0.657033
 H        -0.283551         0.445257        -1.190018
 H        -0.658778        -0.973388        -0.042593
 H         2.465048         1.902528        -0.332897
 H         1.511999         1.952562         1.228394
 H         3.925376         0.881317         1.871374
 H         5.206353        -0.336876        -0.045478
 H         3.958090         0.229213        -2.021383
 H         3.545284        -1.498822        -1.942560
 H         1.849014        -1.115882         2.057368
