19
Iteration:  1404
 C         0.030253        -0.055556        -0.085024
 C         1.540723        -0.021366        -0.062513
 C         2.240781         1.359462         0.455984
 C         3.304214         0.450971         1.082534
 C         4.024984        -0.497301         0.051823
 C         3.387079        -0.468285        -1.307270
 O         2.008208        -0.386465        -1.377425
 O         3.412875        -1.656097         0.711549
 C         2.409525        -0.734162         1.076485
 H        -0.398999         0.206365         0.856819
 H        -0.446621         0.729502        -0.810954
 H        -0.263473        -1.043008        -0.472583
 H         2.429211         2.238194        -0.193103
 H         1.564648         1.579765         1.332737
 H         3.938993         0.537093         2.026397
 H         5.176946        -0.610716         0.112779
 H         3.898754         0.279052        -2.079296
 H         3.712240        -1.463679        -1.802926
 H         1.864924        -1.092815         1.944473
