19
Iteration:  1471
 C         0.043565        -0.153233        -0.048823
 C         1.593903         0.029561        -0.052241
 C         2.320823         1.406948         0.317283
 C         3.348705         0.460778         1.065612
 C         3.982973        -0.605538         0.105385
 C         3.416134        -0.263078        -1.334907
 O         2.031502        -0.482723        -1.293902
 O         3.245471        -1.687583         0.636895
 C         2.390701        -0.769477         1.168422
 H        -0.398867         0.417090         0.774066
 H        -0.349556         0.196992        -1.033055
 H        -0.131933        -1.247139         0.055357
 H         2.748316         2.213988        -0.372542
 H         1.627010         1.769214         1.079595
 H         3.929561         1.027559         1.868229
 H         5.100155        -0.842171         0.135691
 H         3.659996         0.938073        -1.554509
 H         3.987530        -0.773907        -2.166491
 H         1.694335        -1.172554         1.883401
