19
Iteration:  2241charge 0 multiplicity 1
 C         0.026566        -0.190647        -0.018189
 C         1.566188        -0.035132        -0.049817
 C         2.330961         1.317997         0.369630
 C         3.350180         0.411634         1.063136
 C         3.983300        -0.525300         0.064660
 C         3.488643        -0.359619        -1.321174
 O         1.958800        -0.314520        -1.343898
 O         3.275383        -1.696661         0.667116
 C         2.426203        -0.690728         1.160044
 H        -0.438796        -0.321279         0.920422
 H        -0.316616         0.702275        -0.567511
 H        -0.373937        -0.886768        -0.776821
 H         2.595433         2.075970        -0.437779
 H         1.683080         2.049557         0.905806
 H         3.987337         0.752772         1.943787
 H         5.047833        -0.767384         0.190170
 H         3.823211         0.651992        -1.775006
 H         3.776450        -1.152556        -2.037981
 H         1.865245        -0.985113         2.051813
