19
Iteration:  1767charge 0 multiplicity 1
 C        -0.010477        -0.085500        -0.068066
 C         1.501844         0.036013        -0.076678
 C         2.208606         1.303093         0.455475
 C         3.399007         0.439279         1.039998
 C         4.051658        -0.483581         0.144197
 C         3.510771        -0.439355        -1.349689
 O         2.024317        -0.432480        -1.359746
 O         3.353415        -1.656105         0.632102
 C         2.338434        -0.674378         1.126344
 H        -0.492106         0.253823         0.877840
 H        -0.341326         0.349980        -0.939049
 H        -0.205578        -1.147777        -0.122014
 H         2.330082         2.093767        -0.303481
 H         1.688585         1.804505         1.214459
 H         3.951218         0.606510         1.954875
 H         5.184356        -0.581727         0.220778
 H         3.826646         0.465686        -1.907623
 H         3.692359        -1.489491        -1.803451
 H         1.788325        -1.001507         1.992725
