19
Iteration:   639charge 0 multiplicity 1
 C         0.090582        -0.207461        -0.083117
 C         1.546716        -0.009249         0.007666
 C         2.216894         1.407773         0.482293
 C         3.312601         0.494369         1.006529
 C         4.035859        -0.525331         0.035202
 C         3.472204        -0.359017        -1.304693
 O         2.029942        -0.375878        -1.286482
 O         3.280420        -1.727732         0.651713
 C         2.383460        -0.748678         1.043250
 H        -0.366936         0.254733         0.763093
 H        -0.366908         0.366664        -0.904534
 H        -0.180156        -1.275221        -0.182806
 H         2.575503         2.080055        -0.407946
 H         1.690955         1.960661         1.293228
 H         3.928545         0.798150         1.883217
 H         5.129980        -0.620628        -0.006898
 H         3.856929         0.619165        -1.635275
 H         3.778285        -1.108969        -2.069942
 H         1.748995        -0.967964         1.985008
