19
Iteration:   110
 C         0.050811        -0.166393         0.053317
 C         1.537505        -0.005416        -0.035333
 C         2.256467         1.248337         0.381634
 C         3.341220         0.501085         1.100179
 C         4.010540        -0.542680         0.072721
 C         3.494644        -0.226259        -1.337760
 O         2.063410        -0.519457        -1.383533
 O         3.261631        -1.623066         0.572388
 C         2.364357        -0.709997         1.153983
 H        -0.372040         0.372686         0.872315
 H        -0.354449         0.311499        -0.831444
 H        -0.365472        -1.123487         0.035102
 H         2.551498         1.735190        -0.414164
 H         1.722618         1.938849         1.024984
 H         3.877545         0.898965         1.937601
 H         5.107797        -0.800658         0.082861
 H         3.671476         0.833447        -1.442932
 H         3.923203        -0.767991        -2.086259
 H         1.833051        -1.225550         1.936346
