19
Iteration:   315
 C        -0.000117        -0.197021        -0.151973
 C         1.508143         0.000372         0.069628
 C         2.274428         1.420564         0.505668
 C         3.360960         0.479625         0.996679
 C         4.034924        -0.544280         0.036826
 C         3.475778        -0.329187        -1.346623
 O         1.999016        -0.430035        -1.256159
 O         3.325943        -1.706467         0.584630
 C         2.372739        -0.697878         1.160725
 H        -0.516057         0.399235         0.562463
 H        -0.255311         0.142875        -1.155502
 H        -0.267534        -1.278907        -0.259399
 H         2.464756         2.039743        -0.344196
 H         1.830688         1.818314         1.353134
 H         3.935505         0.937252         1.762699
 H         5.098448        -0.736860         0.038867
 H         3.820616         0.672887        -1.650446
 H         3.825079        -1.176723        -2.039364
 H         2.002182        -1.139840         2.033812
