19
Iteration:  2889
 C         0.015855        -0.019533        -0.109315
 C         1.556245        -0.034427         0.019891
 C         2.177689         1.305538         0.498070
 C         3.310999         0.437976         1.097579
 C         4.043793        -0.423865         0.074654
 C         3.420579        -0.384814        -1.403329
 O         2.050229        -0.467784        -1.361425
 O         3.407687        -1.727810         0.631754
 C         2.399984        -0.756682         1.133295
 H        -0.330692         0.338547         0.858147
 H        -0.195425         0.913746        -0.790370
 H        -0.606875        -0.740382        -0.564027
 H         2.587342         1.989739        -0.225368
 H         1.564127         1.728567         1.337213
 H         3.769752         0.718108         2.064386
 H         5.169995        -0.454209         0.004791
 H         3.549926         0.605325        -2.007630
 H         3.704918        -1.284023        -1.947430
 H         1.826836        -1.104131         2.019627
