19
Iteration:   318charge 0 multiplicity 1
 C        -0.013679        -0.211607        -0.149142
 C         1.500040         0.009903         0.041535
 C         2.300428         1.387956         0.487677
 C         3.356097         0.513547         1.026908
 C         4.027699        -0.544446         0.041751
 C         3.483247        -0.340479        -1.343886
 O         2.009984        -0.433095        -1.266113
 O         3.302602        -1.697568         0.579654
 C         2.403128        -0.711448         1.148396
 H        -0.553917         0.331394         0.661387
 H        -0.355374         0.204722        -1.098081
 H        -0.260774        -1.216392        -0.166229
 H         2.480030         2.046356        -0.324908
 H         1.796902         1.871595         1.420920
 H         3.913530         0.969162         1.761883
 H         5.113360        -0.790936         0.021088
 H         3.812548         0.633219        -1.595864
 H         3.807697        -1.014029        -1.994399
 H         2.022029        -1.106995         2.064090
