19
Iteration:  1995
 C         0.082598        -0.099958        -0.005570
 C         1.535051        -0.040374        -0.050621
 C         2.291777         1.307510         0.395388
 C         3.310328         0.453432         1.110534
 C         3.981913        -0.514233         0.078958
 C         3.389446        -0.325829        -1.373168
 O         2.054661        -0.403134        -1.362674
 O         3.323169        -1.676744         0.638591
 C         2.362809        -0.778720         1.136444
 H        -0.273443         0.467800         0.830533
 H        -0.306546         0.487378        -0.835126
 H        -0.245206        -1.129023         0.028757
 H         2.697115         1.908634        -0.453495
 H         1.631378         1.847867         1.141004
 H         3.925606         0.701762         1.971471
 H         5.094334        -0.412658        -0.072222
 H         3.832522         0.793147        -1.611680
 H         3.825288        -1.071414        -2.080121
 H         1.787156        -1.260886         1.966525
