19
Iteration:  2734charge 0 multiplicity 1
 C         0.079503         0.006512        -0.072173
 C         1.519999        -0.012393        -0.052970
 C         2.260033         1.214461         0.429157
 C         3.315805         0.423672         1.117075
 C         4.058431        -0.448479         0.072966
 C         3.382080        -0.269440        -1.383698
 O         1.990105        -0.471138        -1.301244
 O         3.378184        -1.689070         0.652526
 C         2.404446        -0.815608         1.106345
 H        -0.429212         0.045106         0.831126
 H        -0.345498         0.921407        -0.769171
 H        -0.352515        -0.798715        -0.638007
 H         2.398581         2.037016        -0.310827
 H         1.751013         1.769499         1.201404
 H         3.917644         0.727785         1.991358
 H         5.155929        -0.773742         0.147689
 H         3.670399         0.657550        -1.866633
 H         3.718297        -1.059586        -2.052332
 H         1.844111        -1.073234         2.051583
