19
Iteration:  3172charge 0 multiplicity 1
 C        -0.018946        -0.090395        -0.058404
 C         1.480403        -0.025947        -0.091902
 C         2.195926         1.294265         0.404083
 C         3.382351         0.438461         1.076603
 C         3.993795        -0.533548         0.047308
 C         3.443129        -0.257480        -1.320650
 O         2.072447        -0.440862        -1.267266
 O         3.350937        -1.726595         0.670228
 C         2.440296        -0.722788         1.085563
 H        -0.278755         0.434378         0.856814
 H        -0.374189         0.505142        -1.018948
 H        -0.309575        -1.081945        -0.135534
 H         2.654187         1.965774        -0.308541
 H         1.641645         1.878440         1.128780
 H         3.972287         1.003515         1.861010
 H         5.028580        -0.832937        -0.029664
 H         3.757909         0.837645        -1.654506
 H         3.825325        -1.142284        -1.976630
 H         1.768216        -1.045348         1.926037
