19
Iteration:  2098charge 0 multiplicity 1
 C        -0.001523        -0.160988         0.103887
 C         1.538827         0.053614        -0.010603
 C         2.288395         1.320870         0.363917
 C         3.321486         0.461084         1.094384
 C         4.049207        -0.506689         0.078507
 C         3.527273        -0.342596        -1.375233
 O         2.105666        -0.404688        -1.370488
 O         3.196770        -1.709061         0.572891
 C         2.352244        -0.730719         1.095508
 H        -0.225726        -0.074721         1.197684
 H        -0.641194         0.431710        -0.521650
 H        -0.211788        -1.199778        -0.232817
 H         2.446416         2.047728        -0.424432
 H         1.730539         1.897855         1.075343
 H         3.918153         0.807967         1.956283
 H         5.105088        -0.803919         0.069053
 H         3.901319         0.717321        -1.722087
 H         4.004813        -1.149673        -1.950435
 H         1.683745        -0.909403         1.909693
