19
Iteration:   521charge 0 multiplicity 1
 C         0.009506        -0.073328        -0.128948
 C         1.526286        -0.035835         0.017457
 C         2.189071         1.351297         0.472558
 C         3.355529         0.458521         0.998822
 C         3.989800        -0.492963         0.062151
 C         3.434453        -0.325742        -1.317825
 O         2.047215        -0.408329        -1.277549
 O         3.408898        -1.739550         0.608330
 C         2.383634        -0.776216         1.119565
 H        -0.420577         0.007156         0.852246
 H        -0.350077         0.800608        -0.663775
 H        -0.360162        -0.930186        -0.685128
 H         2.338337         2.071635        -0.362623
 H         1.693629         1.720666         1.294242
 H         4.019481         0.828898         1.766310
 H         5.039428        -0.570186         0.120318
 H         3.855734         0.586827        -1.753902
 H         3.803516        -1.221557        -1.808477
 H         1.888520        -1.119979         2.068070
