19
Iteration:  1335charge 0 multiplicity 1
 C        -0.028789        -0.121383        -0.020234
 C         1.567873         0.063976        -0.011537
 C         2.253093         1.418603         0.399113
 C         3.372245         0.464224         1.052270
 C         4.001090        -0.570836         0.054432
 C         3.525841        -0.347214        -1.415712
 O         2.081471        -0.529242        -1.299158
 O         3.253928        -1.664249         0.671660
 C         2.349753        -0.723900         1.128934
 H        -0.491203        -0.345606         0.845139
 H        -0.649859         0.600140        -0.474729
 H        -0.031015        -0.933474        -0.703843
 H         2.507676         2.109749        -0.369506
 H         1.616023         1.938176         1.217141
 H         3.847278         0.687603         1.952128
 H         5.055274        -0.717540         0.000537
 H         3.848014         0.707545        -1.823158
 H         3.973988        -1.056988        -2.168077
 H         1.926685        -1.018037         2.124479
