19
Iteration:  3289charge 0 multiplicity 1
 C         0.023911        -0.216378        -0.014730
 C         1.535921         0.050254         0.001981
 C         2.208073         1.365699         0.431406
 C         3.379267         0.448577         1.059060
 C         4.031608        -0.562674         0.057528
 C         3.525853        -0.400075        -1.415159
 O         2.063294        -0.370110        -1.251656
 O         3.309565        -1.655544         0.617055
 C         2.291064        -0.661618         1.062559
 H        -0.364480        -0.514706         0.925026
 H        -0.672585         0.642053        -0.340926
 H        -0.216749        -1.014535        -0.847229
 H         2.509763         1.962514        -0.477904
 H         1.759341         2.014994         1.204590
 H         3.914604         0.715968         2.050047
 H         5.113883        -0.804372        -0.013729
 H         3.856123         0.574098        -1.914281
 H         3.859679        -1.362938        -1.810680
 H         1.789758        -1.002816         1.993008
