19
Iteration:  4380
 C        -0.042198         0.017020        -0.133470
 C         1.534529        -0.130808         0.064099
 C         2.235288         1.283272         0.403374
 C         3.321577         0.424456         1.057916
 C         4.017839        -0.524152        -0.008897
 C         3.425767        -0.212062        -1.354383
 O         1.994226        -0.448168        -1.176570
 O         3.408336        -1.691491         0.560316
 C         2.462665        -0.832800         1.190942
 H        -0.053337         0.757024        -1.000767
 H        -0.587581        -0.949208        -0.421983
 H        -0.440034         0.582009         0.642365
 H         2.272149         1.837811        -0.512667
 H         1.770421         1.873006         1.187947
 H         4.109613         0.747866         1.797869
 H         5.128652        -0.632079         0.144729
 H         3.595174         0.843459        -1.627318
 H         3.799690        -0.759408        -2.270718
 H         1.962492        -1.294202         2.097092
