19
Iteration:  3684charge 0 multiplicity 1
 C        -0.011753        -0.087821         0.020322
 C         1.527270        -0.002643        -0.018477
 C         2.224567         1.321506         0.305430
 C         3.295421         0.490063         1.056631
 C         4.030961        -0.559613         0.084862
 C         3.539774        -0.321532        -1.379140
 O         2.028799        -0.422105        -1.404797
 O         3.302026        -1.712182         0.653449
 C         2.413647        -0.761228         1.231514
 H        -0.406350        -0.493242         1.037051
 H        -0.585273         0.960628        -0.126444
 H        -0.336873        -0.724565        -0.747396
 H         2.485705         2.022784        -0.568088
 H         1.590965         1.998453         1.090596
 H         4.180208         0.847430         1.678053
 H         5.158698        -0.658079         0.186110
 H         3.881139         0.609662        -1.704533
 H         3.937199        -1.235528        -1.927793
 H         2.022879        -1.047688         2.291503
