19
Iteration:  2322charge 0 multiplicity 1
 C         0.002831        -0.046145        -0.017108
 C         1.501060         0.004219        -0.056466
 C         2.264406         1.425292         0.376730
 C         3.285655         0.434239         1.058534
 C         4.040600        -0.528018         0.057110
 C         3.421572        -0.281343        -1.336819
 O         2.024506        -0.465154        -1.302280
 O         3.447171        -1.817430         0.614397
 C         2.312355        -0.773642         1.148151
 H        -0.374814         0.682687         0.725739
 H        -0.271545         0.405652        -0.938790
 H        -0.316345        -1.050843         0.146881
 H         2.652407         1.754135        -0.502737
 H         1.784377         2.110457         1.038259
 H         3.800579         0.814286         1.991635
 H         5.105571        -0.586352         0.121406
 H         3.853233         0.749088        -1.654011
 H         3.881725        -1.039636        -1.997306
 H         1.858153        -1.062993         2.116756
