19
Iteration:  4651
 C         0.029623        -0.001168         0.017802
 C         1.593877        -0.050430        -0.035773
 C         2.215571         1.308410         0.414618
 C         3.272824         0.451776         1.149389
 C         3.954594        -0.534499         0.065064
 C         3.469335        -0.354928        -1.452185
 O         1.993860        -0.384917        -1.362275
 O         3.418555        -1.691557         0.585335
 C         2.370707        -0.796275         1.198975
 H        -0.427406         0.972090        -0.291035
 H        -0.165784        -0.756039        -0.854946
 H        -0.168116        -0.533399         0.991752
 H         2.744522         1.964964        -0.301316
 H         1.621383         1.884724         1.198051
 H         3.955679         0.715007         2.027136
 H         5.067071        -0.460646         0.097073
 H         3.696921         0.631811        -1.881289
 H         3.883410        -1.189250        -2.077084
 H         1.776261        -1.201621         2.030744
