19
Iteration:  1291
 C         0.050805         0.011142        -0.068159
 C         1.508379        -0.063996         0.040909
 C         2.143080         1.279818         0.398127
 C         3.272570         0.455424         1.125163
 C         4.053227        -0.448390        -0.036701
 C         3.444752        -0.507333        -1.368017
 O         2.032821        -0.287040        -1.386555
 O         3.449397        -1.695624         0.702595
 C         2.399061        -0.809651         1.211076
 H        -0.384198         0.661859         0.586291
 H        -0.088144         0.528659        -1.050376
 H        -0.433062        -0.945653        -0.169451
 H         2.265201         2.017238        -0.388260
 H         1.413348         1.739942         1.183560
 H         3.932754         0.806731         1.832705
 H         5.118276        -0.477984        -0.006638
 H         4.035749         0.181183        -2.040992
 H         3.698171        -1.489210        -1.852314
 H         1.730827        -1.222595         2.029906
