19
Iteration:  2379
 C         0.099289        -0.167472        -0.055781
 C         1.555705         0.028056        -0.005467
 C         2.198834         1.384881         0.486682
 C         3.370391         0.523772         1.027975
 C         4.046002        -0.582190         0.029039
 C         3.456103        -0.426591        -1.362020
 O         2.024443        -0.359950        -1.307846
 O         3.268478        -1.719239         0.646126
 C         2.382178        -0.704893         1.124113
 H        -0.583300        -0.116187         0.908107
 H        -0.242099         0.473696        -0.819659
 H        -0.222895        -0.992433        -0.739193
 H         2.348264         2.173597        -0.219451
 H         1.524023         1.924940         1.137289
 H         4.061484         0.833459         1.781631
 H         5.169533        -0.833178         0.102223
 H         3.853489         0.613945        -1.725672
 H         3.721379        -1.367243        -1.993591
 H         1.844132        -1.029220         2.029149
