19
Iteration:   790charge 0 multiplicity 1
 C         0.071926        -0.205831        -0.241399
 C         1.533367         0.005927        -0.032449
 C         2.233324         1.309125         0.491665
 C         3.412458         0.461328         1.011228
 C         4.008641        -0.545880         0.044894
 C         3.382265        -0.398295        -1.406842
 O         2.012784        -0.382227        -1.289994
 O         3.300071        -1.641965         0.698499
 C         2.426377        -0.647391         1.304942
 H        -0.581690         0.097457         0.550398
 H        -0.068952         0.323588        -1.242911
 H        -0.316947        -1.253244        -0.304330
 H         2.427010         2.134166        -0.095355
 H         1.601388         1.679269         1.312160
 H         4.199885         0.810878         1.693157
 H         5.153275        -0.566067         0.073403
 H         3.755272         0.701256        -1.741881
 H         3.516854        -1.225148        -2.212158
 H         1.949863        -0.981251         2.177602
