19
Iteration:  4108
 C        -0.000213        -0.022225         0.001911
 C         1.536420        -0.026893        -0.099550
 C         2.182678         1.272970         0.470959
 C         3.360795         0.465291         1.041010
 C         4.130544        -0.517479         0.041929
 C         3.455109        -0.281739        -1.291515
 O         1.958792        -0.405710        -1.383489
 O         3.418566        -1.720403         0.692957
 C         2.334972        -0.806816         1.052202
 H        -0.436782         0.321427        -0.975412
 H        -0.361619        -1.048135         0.319491
 H        -0.352245         0.594507         0.766526
 H         2.556649         2.222959        -0.155902
 H         1.615405         1.742453         1.340645
 H         3.946096         0.688965         2.011316
 H         5.263304        -0.635188        -0.118579
 H         3.758710         0.667734        -1.769220
 H         3.760672        -1.060104        -1.935521
 H         1.672822        -1.396644         1.763646
