19
Iteration:  3573charge 0 multiplicity 1
 C         0.100196        -0.300354         0.018831
 C         1.543988         0.071181        -0.027786
 C         2.335329         1.317428         0.426687
 C         3.345046         0.392170         1.120903
 C         4.002329        -0.516819         0.041791
 C         3.517468        -0.340644        -1.422101
 O         2.034191        -0.320239        -1.400838
 O         3.191119        -1.644552         0.623490
 C         2.301995        -0.655178         1.182461
 H        -0.364336         0.329230         0.737322
 H        -0.426981        -0.243024        -0.937903
 H         0.051732        -1.399930         0.323897
 H         2.539735         2.107785        -0.340300
 H         1.856327         1.858286         1.270535
 H         4.035890         0.791803         1.861361
 H         5.049030        -0.834652         0.136166
 H         3.875148         0.580061        -1.848551
 H         3.790615        -1.186163        -2.013484
 H         1.689064        -1.091950         1.960351
