19
Iteration:  4944charge 0 multiplicity 1
 C         0.016941        -0.181336        -0.063466
 C         1.516050         0.076602        -0.038947
 C         2.285666         1.313781         0.546039
 C         3.428046         0.440065         1.022470
 C         4.059456        -0.502127         0.019396
 C         3.438296        -0.311175        -1.388460
 O         2.046115        -0.414232        -1.294471
 O         3.270527        -1.674908         0.624680
 C         2.338896        -0.742632         1.098784
 H        -0.322119         0.355249        -0.872217
 H        -0.146767        -1.302127        -0.103666
 H        -0.558082         0.290365         0.731860
 H         2.489357         2.205723        -0.115898
 H         1.773619         1.746270         1.431922
 H         3.906597         0.596140         2.021404
 H         5.133342        -0.764182        -0.027891
 H         3.601061         0.607190        -1.879835
 H         3.784078        -1.174402        -2.000649
 H         1.736106        -1.169110         1.984530
