19
Iteration:  2645
 C        -0.038001        -0.146054        -0.095906
 C         1.543064         0.060812        -0.048817
 C         2.235588         1.344928         0.466470
 C         3.341636         0.323766         1.058293
 C         4.058521        -0.520595         0.033651
 C         3.466259        -0.390427        -1.387048
 O         2.035283        -0.303579        -1.231370
 O         3.368376        -1.701803         0.663148
 C         2.350735        -0.720842         1.101458
 H        -0.542215         0.376459         0.707864
 H        -0.230539         0.540079        -1.036052
 H        -0.222252        -1.246976        -0.061649
 H         2.374057         2.135068        -0.341473
 H         1.605835         1.791678         1.242749
 H         3.997987         0.605592         1.894357
 H         5.217810        -0.698028        -0.071501
 H         3.954951         0.448044        -1.946259
 H         3.586600        -1.291967        -2.067496
 H         1.769757        -0.911175         2.043672
