19
Iteration:  2805charge 0 multiplicity 1
 C         0.112028        -0.206436        -0.057005
 C         1.564676         0.039540        -0.007709
 C         2.252777         1.384156         0.483499
 C         3.311000         0.436185         1.053673
 C         3.984910        -0.540744         0.049113
 C         3.494782        -0.297300        -1.432839
 O         2.062875        -0.369118        -1.298505
 O         3.201144        -1.748313         0.609134
 C         2.390788        -0.722300         1.155537
 H        -0.413931         0.134077         0.977891
 H        -0.405952         0.375313        -0.808468
 H        -0.322564        -1.309933        -0.166973
 H         2.623686         2.075101        -0.305326
 H         1.571235         2.026448         1.096601
 H         3.931177         0.694942         1.919815
 H         5.033516        -0.578057         0.085196
 H         4.007634         0.616369        -1.863114
 H         4.035457        -1.079921        -2.035785
 H         1.843243        -1.113243         2.003151
