19
Iteration:  3998charge 0 multiplicity 1
 C         0.104545        -0.195090         0.010612
 C         1.560018         0.025735        -0.028213
 C         2.246082         1.313831         0.421765
 C         3.276376         0.431224         1.024804
 C         4.011468        -0.460251         0.088028
 C         3.461304        -0.400036        -1.346779
 O         2.074349        -0.266125        -1.295853
 O         3.287962        -1.724521         0.576677
 C         2.359229        -0.771358         1.117717
 H        -0.428608         0.752846        -0.123666
 H        -0.345609        -0.885516        -0.733564
 H        -0.119844        -0.500497         0.997981
 H         2.201850         1.926031        -0.565008
 H         1.928398         1.965253         1.283020
 H         3.805514         0.798381         1.987662
 H         5.120385        -0.391316        -0.055960
 H         3.938393         0.359891        -2.130797
 H         3.617629        -1.365512        -1.803237
 H         1.720706        -1.054925         1.999340
