19
Iteration:  3572
 C         0.107817        -0.301148         0.020454
 C         1.535666         0.072196        -0.022465
 C         2.337691         1.322049         0.434598
 C         3.344947         0.394805         1.126452
 C         4.005833        -0.519286         0.039089
 C         3.520444        -0.342702        -1.424066
 O         2.038710        -0.322244        -1.408743
 O         3.186747        -1.644466         0.621542
 C         2.298552        -0.654614         1.175839
 H        -0.333253         0.330074         0.734782
 H        -0.387071        -0.218648        -0.914214
 H         0.058306        -1.426705         0.328388
 H         2.535773         2.067335        -0.376150
 H         1.849045         1.858706         1.248884
 H         4.019993         0.811846         1.875465
 H         5.067393        -0.801921         0.144715
 H         3.812582         0.591166        -1.813975
 H         3.724924        -1.211573        -1.988168
 H         1.691401        -1.100238         1.957436
