19
Iteration:  3294charge 0 multiplicity 1
 C         0.010437        -0.220225        -0.020470
 C         1.524909         0.060450         0.003911
 C         2.223786         1.341365         0.394350
 C         3.379655         0.442415         1.069862
 C         4.068851        -0.510105         0.049906
 C         3.528725        -0.389443        -1.349697
 O         2.054318        -0.379845        -1.258079
 O         3.289550        -1.675936         0.599656
 C         2.320675        -0.668390         1.075510
 H        -0.325226        -0.487818         1.043660
 H        -0.577142         0.693436        -0.325343
 H        -0.174143        -0.871112        -0.795048
 H         2.428670         1.923384        -0.479826
 H         1.762935         2.002530         1.124262
 H         3.766919         0.601500         2.035366
 H         5.142910        -0.706526         0.037353
 H         3.767854         0.435257        -1.987271
 H         3.775735        -1.320282        -1.921727
 H         1.710066        -0.966584         1.929314
