19
Iteration:   688charge 0 multiplicity 1
 C        -0.020045        -0.033985        -0.167473
 C         1.526637        -0.047638         0.030297
 C         2.203099         1.372159         0.396337
 C         3.319758         0.458370         1.034336
 C         4.044786        -0.495496         0.117342
 C         3.425021        -0.337287        -1.343708
 O         2.030032        -0.483588        -1.216651
 O         3.456901        -1.747023         0.610103
 C         2.380403        -0.748437         1.148289
 H        -0.669519         0.177311         0.726875
 H        -0.240303         0.851639        -0.767998
 H        -0.375123        -0.905480        -0.725591
 H         2.335691         2.168690        -0.322229
 H         1.599504         1.712227         1.262839
 H         4.013361         0.903560         1.780102
 H         5.168408        -0.580278         0.116636
 H         3.696570         0.615489        -2.040709
 H         3.804300        -1.082802        -2.047347
 H         1.788412        -1.111468         1.949503
