19
Iteration:  1720charge 0 multiplicity 1
 C         0.028172        -0.018542        -0.000157
 C         1.542689        -0.037922        -0.048097
 C         2.309302         1.259873         0.282192
 C         3.306296         0.449306         1.088523
 C         4.043478        -0.508988         0.082651
 C         3.446602        -0.296420        -1.281287
 O         2.045886        -0.537352        -1.380059
 O         3.345057        -1.663997         0.658819
 C         2.288408        -0.703438         1.132169
 H        -0.265124        -0.158719         0.975638
 H        -0.324086         0.941311        -0.541209
 H        -0.362746        -0.948350        -0.505182
 H         2.420200         1.947172        -0.447910
 H         1.745115         1.819619         1.051321
 H         3.760603         1.010872         1.946962
 H         5.142063        -0.583252         0.016618
 H         3.618476         0.728398        -1.509711
 H         4.060785        -1.026913        -1.781016
 H         1.833413        -1.161939         2.063640
