19
Iteration:  1784
 C         0.036407        -0.190938        -0.156986
 C         1.542438         0.016563         0.019283
 C         2.222519         1.394758         0.475098
 C         3.304092         0.548041         1.069615
 C         4.073780        -0.578572        -0.001116
 C         3.489452        -0.462693        -1.366818
 O         2.029491        -0.350159        -1.307933
 O         3.283935        -1.712254         0.695984
 C         2.435307        -0.713199         1.138410
 H        -0.425904         0.434439         0.576821
 H        -0.373983         0.314846        -1.186478
 H        -0.312697        -1.261243        -0.013933
 H         2.481964         2.267353        -0.160740
 H         1.530794         1.676975         1.389139
 H         3.919932         1.038535         1.866554
 H         5.126265        -0.804586        -0.104271
 H         3.921845         0.438790        -1.877437
 H         3.634504        -1.282299        -2.024082
 H         1.699516        -0.911985         2.004282
