19
Iteration:   111charge 0 multiplicity 1
 C         0.056869        -0.165687         0.056575
 C         1.546613        -0.005707        -0.033726
 C         2.254885         1.257408         0.378638
 C         3.335503         0.497814         1.101758
 C         4.010960        -0.545956         0.072652
 C         3.489420        -0.225265        -1.332627
 O         2.062374        -0.515297        -1.384983
 O         3.271308        -1.621560         0.574616
 C         2.352090        -0.720592         1.148798
 H        -0.375743         0.402328         0.911497
 H        -0.348652         0.298675        -0.863356
 H        -0.331572        -1.085322         0.043933
 H         2.533251         1.771796        -0.418786
 H         1.716720         1.886535         1.008687
 H         3.862980         0.905965         1.905490
 H         5.078388        -0.787327         0.054666
 H         3.660243         0.803278        -1.444046
 H         3.943625        -0.810569        -2.077089
 H         1.828496        -1.222964         1.941420
