19
Iteration:  3576
 C         0.075456        -0.299173         0.009763
 C         1.570427         0.064657        -0.046185
 C         2.323553         1.314146         0.406697
 C         3.350906         0.395623         1.097259
 C         3.989540        -0.518158         0.049619
 C         3.504656        -0.332682        -1.409843
 O         2.023976        -0.314226        -1.372216
 O         3.204813        -1.647909         0.628329
 C         2.314763        -0.666560         1.194385
 H        -0.490694         0.336200         0.772355
 H        -0.525459        -0.295056        -0.989635
 H         0.025313        -1.292744         0.312045
 H         2.569255         2.193039        -0.223011
 H         1.860666         1.841582         1.306493
 H         4.076604         0.730417         1.846583
 H         5.010997        -0.901285         0.105868
 H         4.059674         0.563839        -1.952369
 H         3.985583        -1.136841        -2.097309
 H         1.672220        -1.051485         2.003017
