19
Iteration:  2348charge 0 multiplicity 1
 C         0.016715        -0.093821         0.031784
 C         1.530485         0.013614        -0.109031
 C         2.262553         1.303420         0.379891
 C         3.353982         0.438657         1.061500
 C         4.075938        -0.526241         0.067098
 C         3.474589        -0.318520        -1.343854
 O         2.048251        -0.447765        -1.298140
 O         3.283722        -1.633439         0.583499
 C         2.305418        -0.756813         1.145091
 H        -0.383734         0.441060         0.980382
 H        -0.449536         0.459451        -0.818634
 H        -0.153713        -1.219149         0.016797
 H         2.710424         1.928846        -0.415498
 H         1.621299         1.673324         1.167330
 H         3.921235         0.848443         1.842440
 H         5.205864        -0.702935         0.290537
 H         3.935366         0.612828        -1.671244
 H         3.744071        -1.224712        -1.957976
 H         1.761260        -1.160200         2.010471
