19
Iteration:   177
 C         0.077255        -0.135532        -0.157791
 C         1.510160         0.000343         0.027654
 C         2.137970         1.298958         0.530267
 C         3.323044         0.485550         1.020968
 C         4.029120        -0.482112        -0.018460
 C         3.429390        -0.441910        -1.382353
 O         2.043819        -0.316070        -1.295899
 O         3.365181        -1.730719         0.679443
 C         2.447948        -0.745616         1.165952
 H        -0.498326        -0.013501         0.801422
 H        -0.290481         0.646863        -0.870229
 H        -0.145316        -0.979834        -0.624682
 H         2.312088         1.931195        -0.210693
 H         1.650275         1.784316         1.338769
 H         3.941790         1.004981         1.680768
 H         5.114946        -0.521399        -0.017164
 H         3.795999         0.405552        -1.998300
 H         3.617549        -1.396671        -1.793552
 H         1.963446        -0.790208         2.130771
