19
Iteration:  3790
 C        -0.051612         0.030359        -0.000558
 C         1.511064        -0.019337        -0.079214
 C         2.216388         1.302662         0.387910
 C         3.331308         0.489592         1.072995
 C         4.100734        -0.537621         0.088918
 C         3.418721        -0.278723        -1.350598
 O         2.050482        -0.563448        -1.314624
 O         3.386507        -1.700703         0.627010
 C         2.409007        -0.773275         1.134035
 H        -0.273305         1.049945         0.296499
 H        -0.431450        -0.051519        -1.002930
 H        -0.590390        -0.689024         0.753060
 H         2.560202         1.953638        -0.403182
 H         1.683489         1.868950         1.122636
 H         3.903704         0.594310         2.028689
 H         5.199138        -0.486525         0.016112
 H         3.571657         0.720971        -1.895118
 H         3.889842        -0.960478        -1.994813
 H         1.734488        -1.266791         1.844292
