19
Iteration:  2759
 C         0.025222         0.056644        -0.105968
 C         1.511154        -0.068607        -0.043846
 C         2.219626         1.346795         0.491720
 C         3.233517         0.447495         1.087327
 C         4.007418        -0.468232         0.009858
 C         3.417642        -0.350878        -1.365456
 O         2.044612        -0.446106        -1.322924
 O         3.486781        -1.749793         0.642485
 C         2.417062        -0.849889         1.182778
 H        -0.563064         0.166057         0.863347
 H        -0.310420         0.962324        -0.762230
 H        -0.554046        -0.760498        -0.548813
 H         2.332680         2.040544        -0.290704
 H         1.640183         1.921466         1.253458
 H         3.918091         0.723008         1.895286
 H         5.062648        -0.553776         0.010700
 H         3.875248         0.582760        -1.826892
 H         3.742108        -1.102479        -2.038778
 H         1.844341        -1.133776         2.061126
