19
Iteration:  4408
 C         0.046430        -0.036576        -0.059066
 C         1.578860         0.032766        -0.102218
 C         2.267135         1.298410         0.543282
 C         3.296008         0.407355         1.114719
 C         4.003765        -0.464600         0.047044
 C         3.397331        -0.332284        -1.358043
 O         1.983230        -0.528329        -1.300472
 O         3.390088        -1.666440         0.536604
 C         2.413003        -0.745684         1.125408
 H        -0.381542         0.885313        -0.345683
 H        -0.328894        -0.841978        -0.662660
 H        -0.274111        -0.176713         1.064194
 H         2.337475         1.990350        -0.347830
 H         1.706758         1.873875         1.340038
 H         3.946952         0.625483         1.966258
 H         5.073230        -0.478331         0.181411
 H         3.596489         0.587426        -1.972434
 H         3.849618        -1.108137        -1.978343
 H         1.934631        -1.078444         2.043885
