19
Iteration:  3114
 C         0.086689        -0.196470        -0.030210
 C         1.512961         0.012485        -0.050287
 C         2.191046         1.365414         0.448321
 C         3.381274         0.461930         1.047441
 C         4.066362        -0.565943         0.111902
 C         3.488571        -0.453832        -1.339653
 O         1.991451        -0.321993        -1.381028
 O         3.305291        -1.650569         0.645413
 C         2.385367        -0.677145         1.105479
 H        -0.456222        -0.558519         0.800343
 H        -0.454145         0.742461        -0.343712
 H        -0.161523        -1.020148        -0.792138
 H         2.439714         2.262966        -0.102113
 H         1.697314         1.687576         1.342984
 H         3.948124         0.823658         1.936616
 H         5.078883        -0.799190         0.171031
 H         3.844963         0.448916        -1.987823
 H         3.686238        -1.352814        -1.935108
 H         1.745125        -0.945733         1.966365
