19
Iteration:  2911charge 0 multiplicity 1
 C        -0.041838         0.062837        -0.099890
 C         1.482299         0.005831        -0.067780
 C         2.180872         1.298701         0.415728
 C         3.330411         0.403650         1.067636
 C         4.016736        -0.518380         0.043432
 C         3.566717        -0.335186        -1.342466
 O         1.986355        -0.496539        -1.267006
 O         3.451911        -1.644595         0.649792
 C         2.386557        -0.844189         1.160533
 H        -0.459651         0.075580         0.936973
 H        -0.627951         0.873837        -0.704762
 H        -0.375129        -0.770956        -0.717396
 H         2.635536         1.991168        -0.283593
 H         1.617218         1.688566         1.303929
 H         4.098011         0.809599         1.766041
 H         5.164330        -0.585872        -0.071145
 H         3.592672         0.850667        -1.576928
 H         3.796923        -1.075067        -2.113241
 H         1.950256        -1.403813         2.017015
