19
Iteration:  1476charge 0 multiplicity 1
 C         0.107028        -0.177545        -0.026885
 C         1.586617         0.043445        -0.078648
 C         2.310393         1.379969         0.350600
 C         3.339657         0.439457         1.061002
 C         3.936163        -0.594157         0.081957
 C         3.418646        -0.213204        -1.345797
 O         2.067576        -0.499956        -1.312095
 O         3.237736        -1.683806         0.642957
 C         2.368810        -0.743835         1.174504
 H        -0.361288         0.454525         0.847467
 H        -0.347880         0.205334        -0.938279
 H        -0.085966        -1.269723        -0.009264
 H         2.757812         2.038653        -0.352788
 H         1.719124         2.021587         1.055480
 H         3.829723         0.924608         1.866628
 H         4.967974        -0.807891         0.069799
 H         3.722800         0.724035        -1.580767
 H         3.859281        -0.857275        -2.083310
 H         1.706534        -1.028793         2.034974
