19
Iteration:   832
 C        -0.036060        -0.027324         0.023387
 C         1.518222        -0.056064        -0.109322
 C         2.267399         1.264341         0.297096
 C         3.237394         0.453394         1.070315
 C         4.022977        -0.452826         0.118877
 C         3.560570        -0.367196        -1.308697
 O         2.044015        -0.457662        -1.308554
 O         3.388716        -1.632618         0.587472
 C         2.354964        -0.771201         1.131624
 H        -0.222366         0.072000         1.134790
 H        -0.477628         0.786072        -0.643047
 H        -0.593423        -1.022714        -0.105833
 H         2.604449         2.052125        -0.415788
 H         1.571592         1.818269         1.064233
 H         3.729407         0.900016         1.985961
 H         5.209890        -0.596732         0.237659
 H         3.846418         0.425123        -1.940746
 H         3.849357        -1.321645        -1.717600
 H         1.918141        -1.106856         2.056809
