19
Iteration:  3147
 C         0.024666        -0.163539        -0.073465
 C         1.491314         0.027904         0.049123
 C         2.222992         1.393404         0.455881
 C         3.326942         0.407286         0.970961
 C         4.035625        -0.524187         0.066015
 C         3.517408        -0.420087        -1.435709
 O         2.024939        -0.350128        -1.299372
 O         3.316160        -1.672319         0.623115
 C         2.382657        -0.726782         1.225162
 H        -0.552419        -0.231592         0.837965
 H        -0.286897         0.663867        -0.858393
 H         0.145925        -1.115656        -0.728786
 H         2.535396         2.062802        -0.353615
 H         1.741229         1.934877         1.240933
 H         3.872412         0.843135         1.869738
 H         5.046540        -0.669942         0.251451
 H         3.842377         0.549736        -1.924440
 H         3.784427        -1.373282        -1.905249
 H         1.854088        -1.149677         2.101983
