19
Iteration:  4395
 C         0.089138         0.037277        -0.075652
 C         1.533012        -0.059315         0.094797
 C         2.223313         1.278452         0.447205
 C         3.341349         0.449253         1.131831
 C         4.016434        -0.435009        -0.030535
 C         3.408021        -0.262586        -1.450462
 O         2.020824        -0.533937        -1.284723
 O         3.362762        -1.678156         0.585404
 C         2.372243        -0.853661         1.191559
 H        -0.153817         0.872316        -0.714639
 H        -0.236514        -0.820398        -0.613882
 H        -0.521754         0.007354         0.879639
 H         2.665555         1.992548        -0.227247
 H         1.547704         1.750512         1.108931
 H         3.921337         0.870825         1.904086
 H         5.082666        -0.519670        -0.149858
 H         3.624727         0.805492        -1.817558
 H         3.753974        -1.013598        -2.067351
 H         1.840396        -1.332272         1.990499
