19
Iteration:  3611
 C         0.041786        -0.056910        -0.127750
 C         1.530489        -0.020580         0.097527
 C         2.112330         1.328488         0.407891
 C         3.385461         0.444698         0.992203
 C         4.094847        -0.586833         0.034118
 C         3.512605        -0.346688        -1.386490
 O         1.979116        -0.389461        -1.247385
 O         3.364149        -1.663385         0.622707
 C         2.360436        -0.789905         1.170486
 H        -0.588848         0.566871         0.590347
 H        -0.116015         0.305921        -1.174754
 H        -0.366803        -1.047069        -0.007060
 H         2.339856         1.965236        -0.451207
 H         1.849832         1.812698         1.373000
 H         3.918557         0.796597         1.889699
 H         5.191497        -0.695499         0.002489
 H         3.732265         0.785729        -1.665710
 H         3.803372        -1.263438        -2.081877
 H         1.751840        -0.971296         2.071861
