19
Iteration:   426
 C         0.055028        -0.083420        -0.214057
 C         1.490291         0.024442         0.037373
 C         2.188282         1.328351         0.535328
 C         3.336782         0.452323         1.002953
 C         4.066082        -0.533580         0.051445
 C         3.425397        -0.326983        -1.378695
 O         2.006272        -0.464888        -1.257865
 O         3.328159        -1.697585         0.602549
 C         2.479144        -0.729989         1.210929
 H        -0.616679         0.260801         0.626881
 H        -0.227358         0.461302        -1.126531
 H        -0.060913        -1.112520        -0.516699
 H         2.388073         2.061719        -0.163636
 H         1.639755         1.613597         1.438145
 H         3.900178         0.769996         1.798382
 H         5.143652        -0.602036         0.098173
 H         3.576962         0.779468        -1.814366
 H         3.721318        -1.163758        -2.128948
 H         2.154426        -0.965823         2.139000
