19
Iteration:   352
 C         0.132251        -0.175589         0.090587
 C         1.559311        -0.018626        -0.026175
 C         2.260708         1.344682         0.348926
 C         3.226443         0.480561         1.041928
 C         3.980529        -0.528208         0.062675
 C         3.553397        -0.284973        -1.362353
 O         2.064983        -0.424513        -1.355764
 O         3.289960        -1.687116         0.641888
 C         2.279068        -0.785435         1.062242
 H        -0.097119        -0.098623         1.183175
 H        -0.371087         0.656820        -0.407223
 H        -0.233255        -1.127058        -0.185510
 H         2.489613         2.022886        -0.493971
 H         1.803301         2.079709         1.141655
 H         3.778351         0.819481         1.941387
 H         5.109150        -0.611151         0.172498
 H         3.819782         0.686443        -1.696323
 H         3.916228        -0.955497        -2.029336
 H         1.666294        -1.000836         1.980676
