19
Iteration:  4487
 C        -0.001863        -0.187729        -0.102966
 C         1.552252         0.092252         0.024362
 C         2.285356         1.397063         0.567222
 C         3.376616         0.403824         1.026007
 C         4.058666        -0.556049        -0.060961
 C         3.481063        -0.332515        -1.424451
 O         2.008937        -0.418762        -1.241598
 O         3.324590        -1.672240         0.608995
 C         2.271696        -0.706816         1.136398
 H        -0.501821         0.374528        -0.880600
 H        -0.173202        -1.292634        -0.339908
 H        -0.441262        -0.109599         0.877975
 H         2.614683         2.114428        -0.256440
 H         1.666857         1.838040         1.451843
 H         4.067964         0.462138         1.945800
 H         5.176609        -0.544016        -0.032420
 H         3.728186         0.683221        -1.768295
 H         3.751450        -1.176449        -2.163087
 H         1.949489        -1.129809         2.104311
