19
Iteration:  3308
 C         0.024733        -0.099404        -0.012122
 C         1.523597        -0.030901        -0.045452
 C         2.295228         1.337517         0.321908
 C         3.279224         0.464580         1.071569
 C         4.101295        -0.425084         0.097880
 C         3.441727        -0.360595        -1.290675
 O         2.017825        -0.412413        -1.312584
 O         3.261821        -1.719193         0.558755
 C         2.414737        -0.786693         1.155665
 H        -0.348837        -0.459874         0.936799
 H        -0.466493         0.742198        -0.219068
 H        -0.350064        -0.928319        -0.670880
 H         2.683633         2.029219        -0.485581
 H         1.642985         1.868600         1.068052
 H         3.945128         0.950982         1.761601
 H         5.265037        -0.407590         0.259612
 H         3.905475         0.618072        -1.657046
 H         3.798809        -1.281925        -1.800845
 H         1.942253        -1.140558         2.084035
