19
Iteration:   565charge 0 multiplicity 1
 C        -0.027022        -0.079988        -0.145037
 C         1.482515         0.012394        -0.042500
 C         2.253903         1.328557         0.518628
 C         3.352025         0.452259         1.042971
 C         4.063985        -0.477582         0.049710
 C         3.450529        -0.304420        -1.347975
 O         2.039768        -0.516795        -1.281675
 O         3.339998        -1.676030         0.624653
 C         2.417565        -0.793543         1.148645
 H        -0.565144         0.071414         0.776609
 H        -0.327024         0.714703        -0.815016
 H        -0.340434        -0.964736        -0.658320
 H         2.643284         2.060084        -0.221540
 H         1.795908         1.749190         1.328265
 H         4.001552         0.825368         1.792336
 H         5.115965        -0.507138         0.168772
 H         3.505050         0.779905        -1.817388
 H         3.787411        -1.059963        -1.961915
 H         1.849303        -1.162165         2.033943
