19
Iteration:  4471
 C         0.077653        -0.242262        -0.062892
 C         1.503507         0.040772         0.023246
 C         2.264590         1.341580         0.471462
 C         3.411841         0.471190         1.048292
 C         3.989905        -0.593755         0.048626
 C         3.419474        -0.326044        -1.398158
 O         2.005616        -0.277992        -1.329867
 O         3.276583        -1.727078         0.645339
 C         2.451921        -0.736144         1.142550
 H        -0.503074         0.571243        -0.569664
 H         0.023412        -1.086261        -0.698207
 H        -0.498176        -0.331346         0.921547
 H         2.335286         2.073617        -0.291008
 H         1.852368         1.817425         1.307475
 H         4.037324         0.943636         1.742533
 H         5.033874        -0.869716         0.052878
 H         3.858659         0.638225        -1.829126
 H         3.643222        -1.103824        -2.067846
 H         1.737525        -0.953840         1.913678
