19
Iteration:  1506charge 0 multiplicity 1
 C         0.007450        -0.197103         0.030468
 C         1.527681         0.049883        -0.071150
 C         2.254199         1.369798         0.371832
 C         3.339954         0.478158         1.064594
 C         4.053716        -0.535995         0.097178
 C         3.524248        -0.430297        -1.366992
 O         2.077887        -0.354188        -1.332458
 O         3.254996        -1.656270         0.619772
 C         2.359117        -0.756657         1.131066
 H        -0.520389        -0.034007         1.074686
 H        -0.525249         0.496351        -0.613903
 H        -0.313894        -1.209953        -0.347593
 H         2.590449         2.168580        -0.342209
 H         1.727626         1.902942         1.104703
 H         3.808105         0.957117         1.918992
 H         5.109138        -0.770519         0.201236
 H         4.027686         0.514121        -1.968908
 H         3.671156        -1.371280        -1.854055
 H         1.767176        -1.136208         1.948463
