19
Iteration:  4400charge 0 multiplicity 1
 C         0.072819         0.011184        -0.057536
 C         1.574176        -0.013560         0.032049
 C         2.230833         1.264284         0.496533
 C         3.324816         0.441859         1.114153
 C         4.017586        -0.445808        -0.010277
 C         3.375503        -0.263226        -1.426993
 O         2.014669        -0.546723        -1.301298
 O         3.365339        -1.677165         0.573606
 C         2.366056        -0.818909         1.176177
 H        -0.257884         0.959006        -0.566334
 H        -0.130521        -0.877223        -0.745193
 H        -0.425843         0.046083         0.906728
 H         2.636235         1.947723        -0.318979
 H         1.523820         1.827260         1.224005
 H         3.917683         0.855787         2.005562
 H         5.143194        -0.448774        -0.066842
 H         3.649220         0.669474        -1.890841
 H         3.872823        -1.121199        -2.075673
 H         1.911179        -1.312970         2.087504
