19
Iteration:  4896
 C         0.050627        -0.242178         0.014258
 C         1.553105        -0.024979         0.055833
 C         2.287104         1.282750         0.414882
 C         3.359995         0.403417         1.038072
 C         3.977234        -0.563719         0.011531
 C         3.530082        -0.285235        -1.360433
 O         2.053438        -0.220205        -1.335799
 O         3.268459        -1.714000         0.615174
 C         2.310245        -0.705510         1.124328
 H        -0.558406         0.292124        -0.821481
 H        -0.039956        -1.322213         0.010895
 H        -0.445488         0.263529         0.926425
 H         2.401575         1.962833        -0.477874
 H         1.745311         1.958795         1.140008
 H         4.038536         0.870099         1.821746
 H         5.068266        -0.759860         0.095095
 H         4.066512         0.587686        -1.747349
 H         3.596293        -1.172556        -2.109873
 H         1.619395        -1.024263         1.915617
