19
Iteration:  2139
 C        -0.057875        -0.104726        -0.139457
 C         1.481167         0.031370        -0.002116
 C         2.293486         1.311187         0.482085
 C         3.455253         0.445824         1.089438
 C         4.018193        -0.528935         0.016251
 C         3.492077        -0.331487        -1.357613
 O         1.965117        -0.394043        -1.330226
 O         3.350058        -1.714359         0.669877
 C         2.384802        -0.736527         1.114801
 H        -0.632449         0.532375         0.601320
 H        -0.426333         0.159951        -1.063630
 H        -0.284828        -1.139323         0.111903
 H         2.602719         2.101377        -0.309694
 H         1.661234         1.750786         1.267325
 H         4.033703         0.693648         1.900598
 H         5.160811        -0.614421         0.010520
 H         3.750761         0.653884        -1.638575
 H         3.774525        -1.216065        -1.963081
 H         1.973966        -1.148250         2.012749
