19
Iteration:  1014charge 0 multiplicity 1
 C        -0.006252        -0.031736        -0.133554
 C         1.498104        -0.017352         0.028316
 C         2.195483         1.346713         0.507149
 C         3.311852         0.437726         0.993623
 C         4.071231        -0.499235         0.024515
 C         3.455145        -0.382032        -1.395231
 O         2.092794        -0.571281        -1.300300
 O         3.398153        -1.651113         0.644218
 C         2.345908        -0.690376         1.186598
 H        -0.754777         0.012374         0.848142
 H        -0.234033         0.866078        -0.678141
 H        -0.377669        -0.880443        -0.753768
 H         2.455640         2.235965        -0.176298
 H         1.751551         1.851406         1.311913
 H         3.905597         0.769615         1.964525
 H         5.108924        -0.580750         0.154424
 H         3.678644         0.508302        -1.992450
 H         3.848893        -1.110307        -2.113089
 H         1.772395        -1.006384         2.200793
