19
Iteration:  3251
 C         0.064818        -0.146273        -0.136681
 C         1.528591        -0.053970         0.022979
 C         2.195994         1.289442         0.460508
 C         3.419798         0.462307         1.054359
 C         4.033495        -0.568736         0.024406
 C         3.409368        -0.319063        -1.353468
 O         2.014258        -0.302667        -1.343933
 O         3.311367        -1.703956         0.731606
 C         2.384706        -0.685705         1.102633
 H        -0.386732         0.043077         0.893073
 H        -0.276908         0.402567        -0.942794
 H        -0.007348        -1.159994        -0.345333
 H         2.241308         2.053177        -0.310767
 H         1.545196         1.686017         1.278014
 H         4.108977         0.813952         1.749906
 H         5.129599        -0.820403         0.074722
 H         3.991988         0.447227        -1.945937
 H         3.558823        -1.241448        -2.011242
 H         1.904773        -0.770455         2.068954
