19
Iteration:  2701charge 0 multiplicity 1
 C         0.022329        -0.161556         0.031447
 C         1.524318         0.052732        -0.008869
 C         2.263889         1.357069         0.449847
 C         3.303199         0.430127         1.034325
 C         4.054105        -0.575694         0.083106
 C         3.525490        -0.300176        -1.419286
 O         2.098651        -0.403909        -1.254536
 O         3.222799        -1.647381         0.555679
 C         2.345361        -0.761372         1.086967
 H        -0.370572         0.027708         0.981875
 H        -0.494366         0.553486        -0.844629
 H        -0.108206        -1.216108        -0.305050
 H         2.452287         1.847228        -0.530662
 H         1.778794         1.880603         1.261907
 H         3.944421         0.823792         1.886266
 H         5.164959        -0.887009         0.200343
 H         3.955304         0.647808        -1.690143
 H         3.786317        -1.155302        -2.043241
 H         1.744103        -1.111705         1.978797
