19
Iteration:  4085charge 0 multiplicity 1
 C        -0.037788         0.068399        -0.030960
 C         1.572429        -0.064329        -0.016437
 C         2.184289         1.296518         0.449992
 C         3.243856         0.423609         1.071611
 C         4.032652        -0.425037         0.030392
 C         3.472701        -0.344026        -1.387110
 O         2.060744        -0.477587        -1.279769
 O         3.424210        -1.705672         0.557129
 C         2.405891        -0.830933         1.154043
 H        -0.347484         0.787198        -0.800698
 H        -0.492839        -0.943760        -0.243610
 H        -0.458527         0.332095         0.928270
 H         2.473207         2.087434        -0.369532
 H         1.592014         1.857578         1.237713
 H         3.901861         0.536923         1.966344
 H         5.133069        -0.318906         0.246959
 H         3.782568         0.597291        -1.878835
 H         3.745634        -1.160627        -2.039771
 H         1.890301        -1.259823         2.059386
