19
Iteration:  3072charge 0 multiplicity 1
 C         0.057873        -0.062608        -0.030220
 C         1.563768        -0.042096         0.000300
 C         2.239337         1.281757         0.370454
 C         3.279705         0.481328         1.122725
 C         4.067767        -0.570184         0.080233
 C         3.492129        -0.261917        -1.316324
 O         1.968521        -0.456289        -1.337807
 O         3.333618        -1.677188         0.588130
 C         2.381066        -0.763063         1.108723
 H        -0.334251         0.152988         0.912672
 H        -0.125854         0.902379        -0.666068
 H        -0.293719        -1.019211        -0.399841
 H         2.454464         1.822011        -0.564941
 H         1.528967         1.851941         0.955615
 H         3.764629         0.961418         2.051427
 H         5.152677        -0.659854         0.100799
 H         3.829436         0.764860        -1.686915
 H         3.758572        -1.139186        -1.977458
 H         1.912784        -1.185452         2.043192
