19
Iteration:  1041
 C         0.058088        -0.091341        -0.198693
 C         1.549499         0.009581        -0.029335
 C         2.159779         1.253653         0.470791
 C         3.367699         0.530859         1.051592
 C         3.961308        -0.522765         0.043439
 C         3.364436        -0.462957        -1.336412
 O         2.033694        -0.315612        -1.325996
 O         3.452205        -1.733774         0.694414
 C         2.424267        -0.707787         1.211201
 H        -0.406107        -0.042328         0.689580
 H        -0.291715         0.753167        -0.887513
 H        -0.301556        -1.043867        -0.557507
 H         2.208439         2.078660        -0.160438
 H         1.620016         1.721347         1.358415
 H         3.871031         0.996118         1.815978
 H         5.095427        -0.666988        -0.021556
 H         3.837032         0.307362        -2.074424
 H         3.613319        -1.427619        -1.856485
 H         1.827285        -0.915613         2.057200
