19
Iteration:   581charge 0 multiplicity 1
 C         0.072596        -0.061143        -0.030034
 C         1.576558         0.026206        -0.020488
 C         2.205401         1.332076         0.357426
 C         3.276959         0.446650         1.133255
 C         4.044520        -0.520189         0.106649
 C         3.499588        -0.326383        -1.327829
 O         2.016970        -0.451929        -1.292689
 O         3.383950        -1.689706         0.557409
 C         2.312174        -0.764880         1.080050
 H        -0.209178         0.094576         1.060514
 H        -0.461851         0.615633        -0.759124
 H        -0.197550        -1.151916        -0.158436
 H         2.380834         2.111051        -0.387334
 H         1.376899         1.730815         1.093983
 H         3.781372         0.753456         2.114227
 H         5.182377        -0.646997        -0.095666
 H         3.848992         0.591597        -1.629018
 H         3.776379        -1.186597        -2.167308
 H         1.719790        -1.153889         1.907369
