19
Iteration:  4900
 C         0.061895        -0.227102         0.002183
 C         1.548903         0.002107         0.055812
 C         2.276056         1.283146         0.394950
 C         3.352011         0.381148         1.065998
 C         3.970733        -0.548124         0.008335
 C         3.508903        -0.265223        -1.393507
 O         2.086250        -0.219072        -1.316946
 O         3.243048        -1.718667         0.614897
 C         2.302177        -0.720436         1.116127
 H        -0.405335         0.121766        -0.821492
 H         0.081877        -1.331083         0.154407
 H        -0.396901         0.117814         0.958011
 H         2.396794         1.892133        -0.537348
 H         1.813435         1.893715         1.199918
 H         4.010755         0.999681         1.730941
 H         5.033351        -0.843165         0.047015
 H         4.095513         0.552224        -1.788959
 H         3.586497        -1.173181        -1.983805
 H         1.727134        -1.005869         2.078469
