19
Iteration:   501
 C        -0.027108        -0.112637         0.060366
 C         1.520657         0.030222        -0.088604
 C         2.215484         1.303204         0.442504
 C         3.249377         0.417003         1.160649
 C         4.129625        -0.499215         0.069626
 C         3.556162        -0.388887        -1.429749
 O         2.046619        -0.387101        -1.375197
 O         3.333995        -1.627460         0.614771
 C         2.345562        -0.766511         1.106193
 H        -0.346053         0.098587         1.121359
 H        -0.581673         0.596565        -0.589337
 H        -0.298306        -1.118563        -0.279895
 H         2.692966         1.957389        -0.299289
 H         1.560033         1.847075         1.079432
 H         3.742196         0.729485         2.026700
 H         5.191936        -0.616448         0.166820
 H         3.924049         0.452751        -1.830229
 H         3.827464        -1.245485        -2.189942
 H         1.784384        -1.183306         1.911099
