19
Iteration:  2034charge 0 multiplicity 1
 C        -0.062911         0.029809        -0.179226
 C         1.550507        -0.018573         0.003730
 C         2.185961         1.310183         0.502136
 C         3.345909         0.440037         1.024608
 C         3.985876        -0.476909        -0.005219
 C         3.437431        -0.456460        -1.307519
 O         2.081517        -0.464812        -1.234817
 O         3.397296        -1.653617         0.557401
 C         2.456969        -0.790583         1.185485
 H        -0.470971         0.047895         0.852036
 H        -0.387517         1.045251        -0.699835
 H        -0.604177        -0.808771        -0.716703
 H         2.194992         2.061673        -0.257417
 H         1.826426         1.642808         1.487822
 H         3.935960         0.910530         1.898370
 H         5.029205        -0.572733         0.078753
 H         3.700727         0.386423        -1.790286
 H         3.827937        -1.100821        -2.047534
 H         1.958298        -1.092824         2.149614
