19
Iteration:  3595
 C        -0.018329        -0.211172        -0.062909
 C         1.494388         0.043282        -0.006280
 C         2.244876         1.392129         0.476894
 C         3.372985         0.482017         0.985014
 C         4.034777        -0.615402         0.023838
 C         3.472355        -0.337459        -1.318005
 O         2.079183        -0.341632        -1.299121
 O         3.293834        -1.770360         0.648501
 C         2.400516        -0.677303         1.098644
 H        -0.479468         0.517935         0.569117
 H        -0.365622        -0.052528        -1.103850
 H        -0.239393        -1.291468         0.216049
 H         2.321947         2.153228        -0.333532
 H         1.654585         1.925298         1.275462
 H         4.013325         0.867233         1.787833
 H         5.131692        -0.730609         0.106820
 H         3.808962         0.609782        -1.598040
 H         3.681862        -1.020262        -2.107812
 H         1.948969        -1.021179         2.036749
