19
Iteration:  4384charge 0 multiplicity 1
 C        -0.008786         0.023593        -0.143397
 C         1.529400        -0.151788         0.086543
 C         2.247317         1.287388         0.385769
 C         3.318531         0.432186         1.102243
 C         4.004609        -0.493107        -0.029969
 C         3.445651        -0.233833        -1.381889
 O         1.994736        -0.457434        -1.184080
 O         3.399746        -1.679945         0.569632
 C         2.456079        -0.851060         1.197075
 H        -0.005589         0.762632        -0.927571
 H        -0.521740        -0.837463        -0.397472
 H        -0.588115         0.456609         0.806766
 H         2.285944         1.990512        -0.471451
 H         1.743636         1.848316         1.152812
 H         4.092501         0.731323         1.733398
 H         5.036492        -0.700513         0.121360
 H         3.565325         0.863635        -1.703603
 H         3.755524        -0.714616        -2.234495
 H         1.876610        -1.292722         1.966362
