19
Iteration:   297charge 0 multiplicity 1
 C         0.066484        -0.105071        -0.206392
 C         1.533446         0.047735         0.053256
 C         2.148783         1.298087         0.467779
 C         3.343689         0.418366         1.066880
 C         4.027754        -0.506707        -0.049854
 C         3.397340        -0.390548        -1.423880
 O         2.054768        -0.358155        -1.183122
 O         3.388507        -1.685648         0.668760
 C         2.407814        -0.762089         1.165769
 H        -0.638601         0.536514         0.424042
 H        -0.146585         0.145011        -1.269708
 H        -0.184289        -1.092267        -0.045647
 H         2.281422         2.046393        -0.308995
 H         1.562420         1.799882         1.422867
 H         4.055060         0.599355         1.883763
 H         5.154614        -0.610464        -0.073707
 H         3.735811         0.515132        -1.963495
 H         3.585306        -1.202508        -2.023921
 H         1.865148        -0.952581         2.114007
