19
Iteration:  3214
 C         0.023691        -0.035359        -0.015451
 C         1.559220         0.003435        -0.055488
 C         2.243633         1.303653         0.434334
 C         3.280870         0.487101         1.085995
 C         4.068052        -0.462870         0.088743
 C         3.475182        -0.286071        -1.317971
 O         2.055261        -0.500043        -1.302669
 O         3.347576        -1.706809         0.544800
 C         2.378214        -0.797474         1.106218
 H        -0.566044         0.641955         0.593864
 H        -0.589738         0.268595        -1.041474
 H        -0.438194        -1.010001         0.313329
 H         2.599939         1.862608        -0.425710
 H         1.552556         1.875103         0.993023
 H         3.868892         0.620315         2.080560
 H         5.106790        -0.464597         0.119500
 H         3.633715         0.575008        -1.939473
 H         3.742232        -1.315566        -1.648066
 H         1.768150        -1.214688         1.966287
