19
Iteration:   760charge 0 multiplicity 1
 C         0.016247        -0.256086        -0.043670
 C         1.531299         0.004403        -0.001820
 C         2.221923         1.433860         0.393971
 C         3.328565         0.474962         0.996655
 C         4.037466        -0.593244         0.079599
 C         3.498693        -0.352338        -1.347117
 O         2.096923        -0.381343        -1.235853
 O         3.279775        -1.704451         0.611983
 C         2.353798        -0.656331         1.121952
 H        -0.516587         0.215921         0.767326
 H        -0.298226         0.319940        -0.933615
 H        -0.260489        -1.284696        -0.218413
 H         2.570862         2.104704        -0.432953
 H         1.682136         1.978942         1.115616
 H         3.920724         0.740479         1.812954
 H         5.059360        -0.675873         0.205143
 H         3.910660         0.529268        -1.808362
 H         3.677917        -1.118762        -2.171955
 H         1.833851        -1.019697         2.060164
