19
Iteration:  2465
 C        -0.089369        -0.054696        -0.016300
 C         1.490947         0.001626        -0.037833
 C         2.296413         1.411586         0.430957
 C         3.304536         0.513081         1.118744
 C         4.037123        -0.581750         0.070660
 C         3.572687        -0.320162        -1.393143
 O         2.086580        -0.531851        -1.304909
 O         3.328757        -1.666663         0.583313
 C         2.356123        -0.779924         1.097446
 H        -0.404754         0.567392         0.933230
 H        -0.382953         0.587572        -0.780520
 H        -0.542629        -1.083959        -0.009498
 H         2.534352         1.826724        -0.531464
 H         1.563591         1.867966         1.138228
 H         3.876796         0.630414         2.078227
 H         5.128372        -0.758607         0.164348
 H         3.561177         0.703048        -1.723235
 H         3.920867        -1.089936        -2.168611
 H         1.944801        -1.274275         2.000869
