19
Iteration:  4655charge 0 multiplicity 1
 C         0.044962        -0.009882        -0.006456
 C         1.583204        -0.046334        -0.042564
 C         2.209945         1.264524         0.419258
 C         3.291292         0.437365         1.167175
 C         4.005066        -0.528493         0.072437
 C         3.447103        -0.354080        -1.439261
 O         1.993052        -0.403798        -1.316998
 O         3.420366        -1.672241         0.562364
 C         2.354371        -0.782950         1.177732
 H        -0.309152         1.022052        -0.171031
 H        -0.321590        -0.589229        -0.789724
 H        -0.272564        -0.275607         0.953177
 H         2.713242         1.930558        -0.291434
 H         1.543761         1.898940         1.049932
 H         3.859267         0.798429         1.971179
 H         5.073421        -0.360097         0.045797
 H         3.668381         0.636575        -1.941282
 H         3.916020        -1.222161        -2.041622
 H         1.746753        -1.309449         1.914064
