19
Iteration:  1770
 C        -0.010562        -0.096536        -0.079421
 C         1.521959         0.020236        -0.094468
 C         2.210541         1.302424         0.467918
 C         3.400804         0.461311         1.053786
 C         4.074403        -0.502945         0.116058
 C         3.512267        -0.447530        -1.350239
 O         1.996001        -0.409749        -1.338513
 O         3.331515        -1.666961         0.651385
 C         2.354140        -0.667814         1.102698
 H        -0.524964         0.268168         0.860089
 H        -0.364217         0.294087        -1.022341
 H        -0.225239        -1.149444        -0.125961
 H         2.346794         2.181046        -0.317932
 H         1.610428         1.803405         1.267189
 H         3.968083         0.649784         1.955187
 H         5.149642        -0.596278         0.286785
 H         3.798059         0.503183        -1.972565
 H         3.793124        -1.456279        -1.754368
 H         1.908795        -1.017521         2.024204
