19
Iteration:  4943charge 0 multiplicity 1
 C         0.022728        -0.191842        -0.057249
 C         1.511419         0.072206        -0.037262
 C         2.291055         1.316463         0.551840
 C         3.432096         0.450695         1.028515
 C         4.051646        -0.514056         0.023490
 C         3.436908        -0.309671        -1.385233
 O         2.049587        -0.412037        -1.295404
 O         3.268097        -1.674277         0.619321
 C         2.330827        -0.737676         1.084016
 H        -0.339442         0.313851        -0.876480
 H        -0.143212        -1.296478        -0.130345
 H        -0.589493         0.314146         0.728463
 H         2.490670         2.223289        -0.117694
 H         1.799407         1.778806         1.446231
 H         3.939204         0.616037         2.032022
 H         5.132886        -0.769058        -0.059290
 H         3.579742         0.582481        -1.893271
 H         3.845213        -1.188672        -1.996039
 H         1.745155        -1.144037         1.989247
