19
Iteration:  2884
 C         0.102489        -0.007628        -0.109734
 C         1.551756        -0.108655        -0.026190
 C         2.140688         1.317780         0.484674
 C         3.336395         0.435207         1.125703
 C         4.029792        -0.423391         0.076159
 C         3.449803        -0.410977        -1.384801
 O         1.994820        -0.417982        -1.307186
 O         3.373555        -1.697666         0.611806
 C         2.375976        -0.758696         1.088540
 H        -0.447466         0.339898         0.798781
 H        -0.091251         0.841365        -0.729286
 H        -0.456437        -0.979728        -0.391554
 H         2.568862         2.016549        -0.282180
 H         1.635441         1.762781         1.320694
 H         3.995858         0.779558         1.939117
 H         5.135422        -0.465690        -0.031711
 H         3.654467         0.569910        -1.860425
 H         3.857373        -1.343933        -1.876903
 H         1.873081        -1.118550         1.991737
