19
Iteration:  3047charge 0 multiplicity 1
 C        -0.023789        -0.045819        -0.101664
 C         1.543957         0.008077        -0.069770
 C         2.287531         1.365532         0.462975
 C         3.275473         0.404115         1.145330
 C         4.038696        -0.483570         0.009856
 C         3.443369        -0.293737        -1.386674
 O         2.080858        -0.554617        -1.233006
 O         3.352831        -1.661671         0.583941
 C         2.363822        -0.802475         1.143612
 H        -0.416673         0.626690         0.720449
 H        -0.238823         0.578252        -0.937777
 H        -0.492896        -1.113196         0.024049
 H         2.611739         2.156207        -0.210578
 H         1.539432         1.772882         1.149643
 H         4.023351         0.723054         1.841033
 H         5.073916        -0.460234         0.079441
 H         3.707247         0.799598        -1.859539
 H         3.690191        -1.110875        -2.041811
 H         1.880350        -1.265408         1.982130
