19
Iteration:  2807
 C         0.124584        -0.205053        -0.063028
 C         1.575134         0.047158        -0.024864
 C         2.258651         1.385447         0.482688
 C         3.305503         0.440286         1.055278
 C         3.986642        -0.538826         0.034210
 C         3.504935        -0.287838        -1.417114
 O         2.042596        -0.364173        -1.296678
 O         3.193688        -1.764513         0.611961
 C         2.393363        -0.723651         1.175905
 H        -0.420974         0.096365         0.913200
 H        -0.473555         0.341913        -0.749307
 H        -0.248721        -1.328136        -0.099228
 H         2.601544         2.076584        -0.370112
 H         1.525050         1.983960         1.057372
 H         3.971438         0.673782         1.901880
 H         5.095978        -0.580124         0.109202
 H         4.038203         0.671469        -1.840981
 H         4.017727        -1.112095        -2.101917
 H         1.786019        -1.094990         2.023247
