19
Iteration:  4283
 C         0.019049        -0.192618        -0.040291
 C         1.492246         0.027444         0.033054
 C         2.224456         1.350914         0.461863
 C         3.409968         0.397242         0.999350
 C         4.018619        -0.562965        -0.013761
 C         3.486421        -0.270792        -1.437202
 O         2.064831        -0.358614        -1.286541
 O         3.272940        -1.712949         0.684620
 C         2.393134        -0.738364         1.151350
 H        -0.395019         0.578106        -0.793543
 H        -0.148120        -1.212557        -0.538085
 H        -0.453071         0.041616         0.894229
 H         2.411820         2.058931        -0.369615
 H         1.622321         1.819552         1.239900
 H         4.023070         0.525524         1.941549
 H         5.148835        -0.640635         0.052773
 H         3.825640         0.824245        -1.679576
 H         3.652113        -0.921272        -2.260370
 H         1.844406        -0.980501         2.098934
