19
Iteration:  3876charge 0 multiplicity 1
 C         0.129688        -0.175784         0.011002
 C         1.602363         0.027629        -0.046022
 C         2.142365         1.325057         0.473222
 C         3.309413         0.456594         1.116957
 C         3.973445        -0.557346        -0.028809
 C         3.512020        -0.397573        -1.404197
 O         2.019933        -0.225642        -1.379472
 O         3.293662        -1.784723         0.673973
 C         2.431724        -0.711148         1.121411
 H        -0.356638         0.323573        -0.776350
 H        -0.184984        -1.173688         0.064265
 H        -0.306463         0.273963         0.995073
 H         2.550078         2.096094        -0.268834
 H         1.422057         1.930697         1.131158
 H         3.880620         0.619019         2.032325
 H         5.057204        -0.577066         0.030868
 H         3.841972         0.439475        -1.918319
 H         3.598041        -1.270112        -1.991967
 H         1.733138        -1.022863         1.869178
