19
Iteration:  2515
 C         0.013005        -0.179479        -0.091794
 C         1.480272         0.079487        -0.027780
 C         2.205340         1.385413         0.520175
 C         3.329239         0.487937         1.114912
 C         4.090478        -0.653737        -0.036665
 C         3.488933        -0.442584        -1.383088
 O         2.061374        -0.330130        -1.337365
 O         3.296098        -1.703904         0.657686
 C         2.419120        -0.644865         1.182970
 H        -0.452151         0.311365         0.704888
 H        -0.423563         0.209767        -1.192250
 H        -0.136660        -1.254003        -0.130548
 H         2.587779         2.132336        -0.220844
 H         1.542817         1.767132         1.319438
 H         4.086958         0.632119         1.930575
 H         5.173081        -0.764084        -0.141320
 H         3.770706         0.571785        -1.828696
 H         3.557847        -1.265151        -2.023208
 H         1.721064        -1.097924         1.920474
