19
Iteration:   566charge 0 multiplicity 1
 C        -0.016954        -0.077986        -0.139456
 C         1.485927         0.012996        -0.050642
 C         2.255346         1.327611         0.508535
 C         3.343835         0.457555         1.051453
 C         4.075802        -0.477392         0.043711
 C         3.451377        -0.306165        -1.341960
 O         2.029618        -0.511415        -1.275717
 O         3.338987        -1.678010         0.622959
 C         2.411213        -0.796544         1.143089
 H        -0.555550         0.084562         0.811793
 H        -0.362035         0.706295        -0.810090
 H        -0.317475        -0.978992        -0.636640
 H         2.621892         2.066030        -0.204392
 H         1.801896         1.740106         1.317745
 H         3.964895         0.844962         1.790003
 H         5.121686        -0.519251         0.207861
 H         3.509082         0.736298        -1.792556
 H         3.842348        -1.075066        -2.001869
 H         1.860844        -1.180820         1.991958
