19
Iteration:  1460charge 0 multiplicity 1
 C        -0.018105        -0.088552        -0.099747
 C         1.520726         0.001380        -0.019557
 C         2.309425         1.338946         0.355558
 C         3.373255         0.524647         1.080783
 C         4.119598        -0.565198         0.065246
 C         3.501864        -0.326821        -1.292228
 O         1.983687        -0.468869        -1.276032
 O         3.304272        -1.741342         0.619276
 C         2.323866        -0.716458         1.124144
 H        -0.576585         0.468106         0.670895
 H        -0.430809         0.192946        -1.113490
 H        -0.336116        -1.138903         0.094710
 H         2.368473         2.215321        -0.377217
 H         1.709796         1.815835         1.143042
 H         4.138397         0.773820         1.879978
 H         5.257764        -0.687383         0.178378
 H         3.579421         0.880907        -1.485909
 H         3.768969        -0.941866        -2.210848
 H         1.809813        -1.156786         1.964062
