19
Iteration:  2252charge 0 multiplicity 1
 C         0.001540        -0.140612        -0.086378
 C         1.512425         0.002474         0.069694
 C         2.251476         1.315123         0.411698
 C         3.389861         0.457470         1.066734
 C         4.065312        -0.578483         0.048222
 C         3.451158        -0.357432        -1.411494
 O         2.037425        -0.340726        -1.336165
 O         3.299147        -1.667629         0.659106
 C         2.323625        -0.714296         1.156208
 H        -0.444986        -0.245584         0.864765
 H        -0.452290         0.784559        -0.487005
 H        -0.114677        -1.106913        -0.590588
 H         2.628025         1.824042        -0.518244
 H         1.787618         1.852520         1.270910
 H         4.151623         0.806429         1.848406
 H         5.166083        -0.656378         0.090238
 H         3.898337         0.515068        -2.014467
 H         3.806959        -1.305597        -1.876988
 H         1.702202        -1.061308         1.996431
