19
Iteration:  3805charge 0 multiplicity 1
 C         0.052309         0.019392        -0.061122
 C         1.552820        -0.058440        -0.020099
 C         2.334130         1.233470         0.397317
 C         3.337519         0.370403         1.128084
 C         3.997706        -0.394794         0.011164
 C         3.438062        -0.288620        -1.380336
 O         1.989878        -0.571157        -1.282852
 O         3.350029        -1.645880         0.613364
 C         2.328232        -0.741679         1.137313
 H        -0.408388         1.026454         0.193205
 H        -0.412428        -0.407783        -1.023052
 H        -0.269884        -0.668838         0.595350
 H         2.521470         2.099120        -0.237778
 H         1.606845         1.731695         1.063030
 H         3.862180         0.952836         1.909496
 H         5.071700        -0.663178         0.053164
 H         3.727776         0.831595        -1.661506
 H         3.906453        -1.061191        -2.105646
 H         1.929488        -0.974186         2.181813
