19
Iteration:  3949charge 0 multiplicity 1
 C         0.063479         0.000819        -0.092985
 C         1.600771        -0.085554         0.008900
 C         2.206808         1.247601         0.469893
 C         3.354305         0.473054         1.036891
 C         3.969687        -0.490272         0.031459
 C         3.416095        -0.233552        -1.343937
 O         2.033835        -0.445717        -1.262880
 O         3.364664        -1.728369         0.641967
 C         2.381766        -0.829479         1.116135
 H        -0.144961         0.459141        -1.096748
 H        -0.458067        -0.967187        -0.032235
 H        -0.430663         0.645657         0.696398
 H         2.378971         2.054030        -0.192555
 H         1.484602         1.619646         1.196291
 H         4.219971         0.772647         1.532859
 H         5.018727        -0.590164        -0.114337
 H         3.602825         0.817481        -1.752790
 H         3.700115        -0.927994        -2.222527
 H         1.804008        -1.017932         2.015426
