19
Iteration:  4420charge 0 multiplicity 1
 C        -0.007814        -0.095015         0.005475
 C         1.482878         0.008236        -0.065771
 C         2.254383         1.414496         0.462593
 C         3.366980         0.443397         1.088504
 C         4.053954        -0.469871         0.060612
 C         3.490613        -0.401865        -1.327850
 O         1.992252        -0.448899        -1.319309
 O         3.379343        -1.688613         0.553758
 C         2.364721        -0.768756         1.041847
 H        -0.539353         0.821879        -0.138732
 H        -0.447032        -0.869352        -0.660137
 H        -0.217030        -0.469437         1.071824
 H         2.703495         2.362435         0.000913
 H         1.554424         1.657138         1.353628
 H         3.958297         0.676038         2.028376
 H         5.150508        -0.553827        -0.010650
 H         3.796704         0.571049        -1.735479
 H         3.765778        -1.338712        -1.919063
 H         1.724242        -1.144485         1.869610
