19
Iteration:  3869charge 0 multiplicity 1
 C         0.077064        -0.183532         0.013919
 C         1.552851         0.007355         0.007771
 C         2.173141         1.325434         0.448378
 C         3.330896         0.498961         1.067048
 C         3.976954        -0.563074         0.007578
 C         3.488681        -0.399646        -1.427299
 O         2.065213        -0.202175        -1.397855
 O         3.300755        -1.763140         0.684947
 C         2.388926        -0.751119         1.139192
 H        -0.474946         0.535282        -0.731222
 H        -0.248454        -1.316396        -0.129796
 H        -0.182850         0.166375         1.018026
 H         2.489437         2.097855        -0.235658
 H         1.621402         1.700916         1.271685
 H         4.044537         0.751927         1.973235
 H         5.109213        -0.695922        -0.111805
 H         3.997998         0.520117        -1.885415
 H         3.749211        -1.339958        -1.973535
 H         1.638762        -1.102344         1.934296
