19
Iteration:  2720charge 0 multiplicity 1
 C        -0.062440        -0.054616        -0.087280
 C         1.554545        -0.012395        -0.012908
 C         2.260726         1.403776         0.435917
 C         3.358100         0.436862         1.076420
 C         4.040105        -0.528180         0.050920
 C         3.482592        -0.304352        -1.305968
 O         2.033029        -0.472964        -1.296063
 O         3.332350        -1.771069         0.541685
 C         2.371560        -0.735298         1.160188
 H        -0.378586         0.011875         0.987229
 H        -0.439371         0.822199        -0.566552
 H        -0.297248        -1.111758        -0.387242
 H         2.660534         2.100556        -0.370469
 H         1.545400         1.793550         1.184976
 H         3.853426         0.825121         1.966501
 H         5.176930        -0.351452        -0.062239
 H         3.665510         0.698795        -1.696217
 H         3.938498        -1.109829        -2.016311
 H         1.829860        -1.171270         2.025078
