19
Iteration:  3241
 C         0.009507        -0.155995        -0.107710
 C         1.533762        -0.009653         0.009619
 C         2.237011         1.310589         0.461558
 C         3.339522         0.483008         1.017905
 C         4.038215        -0.605785         0.016669
 C         3.473488        -0.390749        -1.361324
 O         2.029975        -0.310376        -1.284590
 O         3.363260        -1.627249         0.671096
 C         2.356614        -0.765217         1.154642
 H        -0.545242         0.371906         0.720273
 H        -0.294037         0.344098        -0.938161
 H        -0.346085        -1.179408        -0.269507
 H         2.469382         2.013561        -0.361654
 H         1.690146         1.852344         1.292263
 H         3.952686         0.824869         1.794182
 H         5.185490        -0.717394         0.020703
 H         3.798535         0.641166        -1.785808
 H         3.670171        -1.240238        -2.068356
 H         1.735150        -1.220130         1.925109
