19
Iteration:  3777
 C        -0.029613         0.051850        -0.000727
 C         1.501163        -0.012627        -0.010305
 C         2.173868         1.378910         0.373987
 C         3.289842         0.449848         1.031231
 C         4.031433        -0.540501         0.047857
 C         3.555320        -0.365790        -1.323907
 O         2.011254        -0.483629        -1.280522
 O         3.447304        -1.713631         0.622317
 C         2.389415        -0.834146         1.075582
 H        -0.386316         0.922095         0.492423
 H        -0.474651        -0.032641        -0.938497
 H        -0.484801        -0.887119         0.648404
 H         2.488649         1.997254        -0.509137
 H         1.523316         1.985087         1.080511
 H         3.910432         1.022892         1.672083
 H         5.078142        -0.670365         0.226848
 H         3.854718         0.638858        -1.502599
 H         3.802890        -1.062016        -2.098469
 H         1.880762        -1.216208         1.939084
