19
Iteration:  1358charge 0 multiplicity 1
 C         0.092383        -0.229607        -0.038500
 C         1.631451        -0.030360        -0.028535
 C         2.261173         1.316899         0.241826
 C         3.403033         0.485372         1.020467
 C         4.031294        -0.545799         0.085574
 C         3.485084        -0.328692        -1.245184
 O         2.040710        -0.414708        -1.226480
 O         3.138666        -1.689410         0.562340
 C         2.327525        -0.651775         1.197630
 H        -0.260601        -0.333227         0.890277
 H        -0.334002         0.774375        -0.234022
 H        -0.347823        -0.887268        -0.756909
 H         2.576306         1.991369        -0.498689
 H         1.576598         1.813566         1.062510
 H         3.969627         0.984052         1.774458
 H         5.102161        -0.789296        -0.112726
 H         3.667698         0.787665        -1.570006
 H         4.071370        -0.879478        -2.066365
 H         1.784083        -0.913715         2.144930
