19
Iteration:  4084charge 0 multiplicity 1
 C        -0.034617         0.066891        -0.037230
 C         1.568294        -0.070033        -0.012379
 C         2.180536         1.306738         0.450652
 C         3.248663         0.428011         1.072603
 C         4.036929        -0.421349         0.027325
 C         3.479342        -0.335977        -1.388743
 O         2.058691        -0.479776        -1.280432
 O         3.414607        -1.710122         0.557502
 C         2.410516        -0.835628         1.162959
 H        -0.329167         0.795473        -0.785636
 H        -0.489081        -0.934755        -0.260994
 H        -0.481805         0.319815         0.964033
 H         2.498527         2.064071        -0.344242
 H         1.584255         1.874915         1.212109
 H         3.888955         0.533969         1.940494
 H         5.135047        -0.313125         0.220667
 H         3.760185         0.566687        -1.887217
 H         3.757243        -1.179982        -2.036626
 H         1.894380        -1.278485         2.044688
