19
Iteration:  4998charge 0 multiplicity 1
 C        -0.033365         0.080394        -0.007276
 C         1.505260        -0.003442        -0.088150
 C         2.234654         1.224759         0.433931
 C         3.272988         0.401108         1.088479
 C         4.031402        -0.447207         0.054340
 C         3.513919        -0.327026        -1.358813
 O         2.002609        -0.492923        -1.281625
 O         3.488666        -1.683004         0.573873
 C         2.322651        -0.784582         1.125399
 H        -0.291152         0.938069        -0.472904
 H        -0.424939        -0.821049        -0.593035
 H        -0.342636        -0.076520         1.041539
 H         2.646870         1.945349        -0.357479
 H         1.578468         1.732776         1.184406
 H         3.780355         0.744455         2.065338
 H         5.137442        -0.532740         0.075710
 H         3.516226         0.608210        -1.876472
 H         3.842318        -1.160785        -2.041182
 H         1.992523        -1.214711         2.125463
