19
Iteration:  2083
 C         0.021631        -0.169015         0.040246
 C         1.505250         0.014685        -0.137500
 C         2.306281         1.384187         0.403086
 C         3.343186         0.421117         1.026403
 C         4.016373        -0.615753         0.087725
 C         3.514991        -0.309707        -1.299342
 O         1.996357        -0.398869        -1.356453
 O         3.334667        -1.663419         0.616250
 C         2.290646        -0.707236         1.156930
 H        -0.262273        -0.277023         1.115630
 H        -0.487140         0.678560        -0.384118
 H        -0.334993        -1.052808        -0.447171
 H         2.890524         2.077260        -0.317083
 H         1.728332         1.951708         1.190523
 H         3.907401         0.789813         1.834511
 H         5.137333        -0.542174         0.304323
 H         3.891248         0.530485        -1.852807
 H         3.741743        -0.993964        -2.138724
 H         1.969515        -1.304470         2.008212
