19
Iteration:  3121
 C         0.040036        -0.202452        -0.095835
 C         1.582391        -0.014814        -0.061348
 C         2.222049         1.385446         0.484594
 C         3.413249         0.502255         1.079693
 C         4.047347        -0.550359         0.055791
 C         3.443447        -0.490900        -1.368045
 O         2.026044        -0.302718        -1.328321
 O         3.278242        -1.663675         0.632799
 C         2.378571        -0.668297         1.148648
 H        -0.303279        -0.540808         1.003520
 H        -0.414553         0.684061        -0.333934
 H        -0.123698        -1.064640        -0.815823
 H         2.339097         2.205480        -0.282631
 H         1.414029         1.674137         1.254911
 H         3.849794         0.843537         1.963375
 H         5.205415        -0.731730         0.036737
 H         3.758933         0.394405        -1.776991
 H         3.651815        -1.379257        -1.912811
 H         1.694590        -1.066008         1.873463
