19
Iteration:  2053charge 0 multiplicity 1
 C         0.049721         0.004369        -0.105242
 C         1.512178        -0.040457         0.036794
 C         2.178148         1.252182         0.463302
 C         3.367580         0.458034         1.066875
 C         4.063227        -0.508460         0.018209
 C         3.436854        -0.355408        -1.426150
 O         1.985952        -0.408438        -1.306213
 O         3.360944        -1.710263         0.676111
 C         2.405461        -0.748722         1.196991
 H        -0.622563        -0.262250         0.806666
 H        -0.161881         0.859044        -0.638167
 H        -0.169775        -0.679013        -0.938332
 H         2.448189         2.033278        -0.309668
 H         1.592912         1.842838         1.090332
 H         3.923240         0.863132         1.888061
 H         5.207231        -0.479004        -0.000074
 H         3.871514         0.601575        -2.013598
 H         3.656281        -1.304690        -2.028954
 H         2.008105        -1.237554         2.028362
