19
Iteration:   926
 C         0.046548        -0.195434        -0.157313
 C         1.560710         0.003685         0.030988
 C         2.097066         1.388985         0.493605
 C         3.388018         0.516106         0.984909
 C         4.012105        -0.519315         0.019318
 C         3.498960        -0.500110        -1.372415
 O         2.019960        -0.291197        -1.239817
 O         3.314927        -1.719408         0.684028
 C         2.434269        -0.693956         1.100216
 H        -0.558738         0.285581         0.642866
 H        -0.079960         0.154282        -1.125384
 H        -0.231167        -1.227321        -0.031301
 H         2.362876         2.131957        -0.267141
 H         1.555500         1.866281         1.204092
 H         4.138683         0.693256         1.820313
 H         5.033611        -0.614636         0.120812
 H         3.999996         0.306481        -2.032011
 H         3.679681        -1.488740        -1.837525
 H         1.751353        -0.851870         2.015241
