19
Iteration:  3154charge 0 multiplicity 1
 C        -0.012991        -0.140956        -0.105444
 C         1.544329         0.012742         0.045495
 C         2.269613         1.357645         0.419958
 C         3.358641         0.456727         0.982633
 C         4.102145        -0.556231         0.083562
 C         3.476690        -0.397199        -1.352482
 O         1.983677        -0.357411        -1.307411
 O         3.329375        -1.665856         0.610890
 C         2.333447        -0.733927         1.197623
 H        -0.530650        -0.035832         0.902271
 H        -0.323688         0.495639        -0.826174
 H        -0.162519        -1.174588        -0.590791
 H         2.289124         2.044717        -0.463908
 H         1.652816         1.805729         1.279887
 H         3.827844         0.710268         1.873999
 H         5.277632        -0.567138         0.203042
 H         3.829837         0.507662        -1.743432
 H         3.854814        -1.163409        -2.017951
 H         1.875707        -1.152973         2.076891
