19
Iteration:  3621
 C         0.002234        -0.000434        -0.126540
 C         1.512015        -0.063212         0.022596
 C         2.229523         1.260170         0.429740
 C         3.345250         0.444631         1.029089
 C         4.015492        -0.501982        -0.001463
 C         3.462259        -0.328500        -1.353056
 O         2.030587        -0.431711        -1.223961
 O         3.374526        -1.665341         0.628848
 C         2.398586        -0.775663         1.200447
 H        -0.496283         0.650078         0.676779
 H        -0.167261         0.489679        -1.156059
 H        -0.347069        -0.987768        -0.262101
 H         2.331740         2.044414        -0.351846
 H         1.416038         1.751080         1.066024
 H         3.978081         0.799981         1.860524
 H         5.111687        -0.597053         0.090774
 H         3.824934         0.547334        -2.040400
 H         3.670728        -1.227008        -2.103546
 H         2.076277        -1.260916         2.144474
