19
Iteration:  2584
 C        -0.010590        -0.034943        -0.037141
 C         1.529758         0.046257        -0.092104
 C         2.319466         1.378327         0.388784
 C         3.335984         0.409761         1.082118
 C         4.075942        -0.527592         0.068673
 C         3.446874        -0.295345        -1.292434
 O         1.988368        -0.533184        -1.316639
 O         3.398649        -1.719224         0.649089
 C         2.311856        -0.798870         1.082200
 H        -0.546457         0.001555         0.991166
 H        -0.468044         0.890357        -0.524413
 H        -0.476285        -0.873358        -0.616143
 H         2.680671         1.965908        -0.447177
 H         1.728784         1.850956         1.232249
 H         3.888111         0.942670         1.939321
 H         5.149149        -0.493505         0.077323
 H         3.608432         0.784234        -1.496422
 H         3.898933        -0.977610        -2.016958
 H         1.699336        -1.114424         1.944038
