19
Iteration:  3946
 C         0.070196         0.010518        -0.073670
 C         1.614835        -0.084760         0.004544
 C         2.200203         1.253719         0.459116
 C         3.326042         0.476155         1.039508
 C         3.963658        -0.520468         0.003450
 C         3.432236        -0.211004        -1.345452
 O         2.020657        -0.454155        -1.239778
 O         3.355611        -1.726684         0.632573
 C         2.394164        -0.835881         1.121011
 H        -0.008591         0.446657        -1.172660
 H        -0.482991        -1.036065         0.004845
 H        -0.431423         0.693826         0.577598
 H         2.266288         2.051285        -0.289836
 H         1.509354         1.628910         1.175478
 H         4.313976         0.882326         1.585591
 H         5.103166        -0.572251        -0.150225
 H         3.669902         0.777738        -1.581744
 H         3.723720        -0.874047        -2.157962
 H         1.764663        -1.093329         2.033798
