19
Iteration:  4352charge 0 multiplicity 1
 C        -0.075598        -0.083298        -0.043557
 C         1.541632         0.041666        -0.046940
 C         2.236231         1.340826         0.523466
 C         3.361230         0.420607         1.087740
 C         4.068728        -0.513739         0.009684
 C         3.482588        -0.326655        -1.392423
 O         2.000370        -0.408461        -1.295273
 O         3.374109        -1.713527         0.589130
 C         2.410760        -0.783600         1.101565
 H        -0.453040        -0.002187        -1.047495
 H        -0.310605        -1.081571         0.204956
 H        -0.551981         0.724931         0.644620
 H         2.247846         2.275992        -0.128425
 H         1.693690         1.521262         1.473667
 H         4.021537         0.660174         1.875251
 H         5.139118        -0.652637         0.075147
 H         3.736233         0.711710        -1.722249
 H         3.818209        -1.099362        -2.049502
 H         1.826637        -1.177155         1.899640
