19
Iteration:  4334charge 0 multiplicity 1
 C         0.148769        -0.208613         0.020022
 C         1.534499        -0.038113         0.010490
 C         2.245856         1.349809         0.585870
 C         3.278516         0.445975         1.122937
 C         3.977694        -0.488378        -0.018495
 C         3.454100        -0.381383        -1.425753
 O         2.065758        -0.294954        -1.395360
 O         3.310087        -1.670351         0.575655
 C         2.311381        -0.748185         1.094420
 H        -0.271418        -0.019536        -0.967015
 H        -0.162257        -1.157169         0.579240
 H        -0.230071         0.625227         0.595369
 H         2.710645         2.055945        -0.107884
 H         1.608442         1.897821         1.345849
 H         4.003881         0.707900         1.959408
 H         5.071060        -0.721243         0.035838
 H         3.877838         0.375344        -2.065164
 H         3.760353        -1.314636        -2.090858
 H         1.668268        -1.093037         1.956580
