19
Iteration:  4637
 C         0.073188        -0.168942         0.002478
 C         1.517511         0.071278        -0.025108
 C         2.292254         1.379482         0.479923
 C         3.306234         0.408681         1.043456
 C         3.980201        -0.498168        -0.011569
 C         3.456479        -0.324770        -1.381634
 O         2.025126        -0.339713        -1.425017
 O         3.318894        -1.755423         0.710231
 C         2.409916        -0.801664         1.144644
 H        -0.543831         0.719536        -0.180387
 H        -0.269304        -0.969648        -0.751558
 H        -0.463698        -0.443270         1.070509
 H         2.442879         2.117346        -0.316099
 H         1.659953         1.906936         1.170223
 H         4.008271         0.777960         1.873353
 H         5.090975        -0.639767         0.017826
 H         3.955144         0.565348        -1.756571
 H         3.767282        -1.103573        -2.005090
 H         1.881767        -1.119502         2.089828
