19
Iteration:  4394charge 0 multiplicity 1
 C         0.089148         0.041206        -0.075502
 C         1.526091        -0.069277         0.103401
 C         2.224425         1.281716         0.437223
 C         3.341164         0.448555         1.133898
 C         4.013223        -0.433967        -0.033469
 C         3.414859        -0.260805        -1.449841
 O         2.020474        -0.529503        -1.279219
 O         3.363732        -1.677862         0.586446
 C         2.377723        -0.857681         1.192346
 H        -0.138458         0.877771        -0.755781
 H        -0.279737        -0.837257        -0.596515
 H        -0.518627         0.002780         0.841021
 H         2.646784         2.001243        -0.215330
 H         1.561921         1.743594         1.092272
 H         3.942398         0.873169         1.895590
 H         5.088319        -0.542784        -0.151604
 H         3.614343         0.817311        -1.802793
 H         3.743115        -1.005167        -2.092385
 H         1.817176        -1.337028         1.982401
