19
Iteration:  3124charge 0 multiplicity 1
 C         0.019478        -0.215905        -0.109775
 C         1.619845        -0.007509        -0.050958
 C         2.231274         1.387008         0.503599
 C         3.398006         0.529631         1.093548
 C         4.042854        -0.546572         0.011704
 C         3.417537        -0.500208        -1.377791
 O         2.050317        -0.304214        -1.298410
 O         3.267579        -1.677849         0.633841
 C         2.369163        -0.674485         1.157866
 H        -0.157803        -0.454140         0.963187
 H        -0.491994         0.722793        -0.405630
 H        -0.170810        -1.083965        -0.886566
 H         2.285907         2.087552        -0.331333
 H         1.436656         1.687587         1.155588
 H         3.924150         0.849577         2.000896
 H         5.094829        -0.637014        -0.029526
 H         3.879739         0.463878        -1.785959
 H         3.680053        -1.392852        -1.894982
 H         1.720124        -1.107537         1.915191
