19
Iteration:  2275charge 0 multiplicity 1
 C         0.009134        -0.075688        -0.113525
 C         1.547499         0.052778        -0.019369
 C         2.168908         1.418202         0.508715
 C         3.284147         0.454728         0.994350
 C         4.028112        -0.563523         0.009341
 C         3.491870        -0.468118        -1.364481
 O         2.029807        -0.405901        -1.218926
 O         3.327615        -1.705926         0.584413
 C         2.456876        -0.731605         1.139796
 H        -0.447067         0.152121         0.768837
 H        -0.325023         0.729819        -0.816589
 H        -0.196587        -1.099303        -0.368084
 H         2.452604         2.255458        -0.134457
 H         1.559292         1.575112         1.417543
 H         4.134712         0.726404         1.745643
 H         5.068587        -0.577075         0.213243
 H         3.846102         0.491435        -1.878958
 H         3.874558        -1.338444        -1.893693
 H         1.936217        -1.087987         2.044519
