19
Iteration:  3488
 C         0.037711         0.093022        -0.138849
 C         1.482839        -0.008420        -0.019296
 C         2.255375         1.257160         0.475056
 C         3.286274         0.421179         1.054826
 C         3.987944        -0.430658         0.008616
 C         3.411413        -0.366920        -1.339060
 O         1.995612        -0.547123        -1.243396
 O         3.440130        -1.640109         0.640878
 C         2.443563        -0.844347         1.136500
 H        -0.510963        -0.265679         0.730275
 H        -0.356122         1.101783        -0.495338
 H        -0.177580        -0.615782        -0.870130
 H         2.575434         1.995539        -0.261001
 H         1.715998         1.756707         1.309899
 H         3.924797         0.846484         1.822930
 H         5.078598        -0.466910         0.016596
 H         3.602104         0.490120        -1.937676
 H         3.909071        -1.049921        -1.990247
 H         1.869141        -1.175914         1.991157
