19
Iteration:  1959charge 0 multiplicity 1
 C         0.037234        -0.224934         0.062251
 C         1.519796         0.033675         0.032217
 C         2.250401         1.344794         0.395342
 C         3.312764         0.436686         1.042481
 C         4.095166        -0.617070         0.039636
 C         3.509013        -0.405772        -1.313919
 O         2.107017        -0.332426        -1.356843
 O         3.263472        -1.612880         0.598270
 C         2.283617        -0.689584         1.042032
 H        -0.322264         0.212465         0.903658
 H        -0.473286         0.148255        -0.868488
 H        -0.250220        -1.273388         0.147836
 H         2.544986         2.058604        -0.340899
 H         1.689618         2.023386         1.153977
 H         3.835307         0.721273         2.016221
 H         5.094093        -0.821376         0.246195
 H         3.911619         0.644602        -1.704112
 H         3.675528        -1.008324        -2.201665
 H         1.735082        -1.031010         1.984156
