19
Iteration:  3564charge 0 multiplicity 1
 C         0.146112        -0.308768         0.045249
 C         1.544873         0.055536        -0.000857
 C         2.316905         1.379202         0.468957
 C         3.357379         0.473081         1.126148
 C         4.019382        -0.565144         0.042470
 C         3.484116        -0.361729        -1.386796
 O         2.061299        -0.333437        -1.410126
 O         3.172217        -1.664773         0.591335
 C         2.294767        -0.703824         1.101900
 H        -0.358902         0.283727         0.848564
 H        -0.305120         0.014428        -0.975538
 H         0.015189        -1.345666         0.274293
 H         2.651627         1.806729        -0.490725
 H         1.662984         2.040847         1.130796
 H         3.875763         0.817909         2.031237
 H         5.106565        -0.544812         0.139780
 H         3.761937         0.662082        -1.825492
 H         3.638227        -1.294014        -1.983803
 H         1.712926        -1.006098         1.987387
