19
Iteration:   993
 C        -0.012809        -0.025954        -0.057822
 C         1.526594        -0.024707        -0.080014
 C         2.265383         1.276855         0.306035
 C         3.329448         0.488680         1.103253
 C         4.054939        -0.464482         0.069531
 C         3.506093        -0.283328        -1.276281
 O         2.038700        -0.566633        -1.233456
 O         3.290652        -1.657512         0.589834
 C         2.382400        -0.764129         1.138034
 H        -0.362786        -0.048820         1.075499
 H        -0.451248         0.777189        -0.588804
 H        -0.418312        -0.996635        -0.394550
 H         2.566831         1.954768        -0.539786
 H         1.578305         1.868247         0.774344
 H         4.061638         0.846388         1.942379
 H         5.084918        -0.545593         0.168840
 H         3.745383         0.729659        -1.745365
 H         3.896059        -0.965390        -2.030536
 H         1.867668        -1.393604         2.009686
