19
Iteration:   750charge 0 multiplicity 1
 C         0.071477        -0.191021         0.013912
 C         1.550998         0.032258        -0.058973
 C         2.198830         1.398337         0.332138
 C         3.285256         0.433164         1.049075
 C         4.066687        -0.531256         0.062131
 C         3.510415        -0.406210        -1.323216
 O         2.083217        -0.376529        -1.259861
 O         3.295089        -1.686962         0.599528
 C         2.300440        -0.727933         1.101614
 H        -0.159096         0.207264         1.022931
 H        -0.561311         0.318218        -0.687519
 H        -0.111479        -1.244220        -0.055931
 H         2.585290         2.038685        -0.576944
 H         1.686617         1.982976         1.062094
 H         3.882131         0.757386         1.834358
 H         5.064285        -0.491701         0.251738
 H         3.740153         0.557190        -1.518335
 H         3.904662        -1.119827        -2.047936
 H         1.569766        -0.999135         1.963010
