19
Iteration:  2164charge 0 multiplicity 1
 C         0.048904        -0.016380        -0.189048
 C         1.497548        -0.020878         0.089827
 C         2.255519         1.342289         0.484003
 C         3.302562         0.434632         1.061303
 C         4.030814        -0.523235        -0.029447
 C         3.429209        -0.384559        -1.420466
 O         1.979987        -0.388967        -1.274153
 O         3.446271        -1.710713         0.677169
 C         2.361068        -0.793858         1.152692
 H        -0.438579         0.622226         0.528316
 H        -0.179824         0.339405        -1.185379
 H        -0.375994        -1.032828        -0.063637
 H         2.537884         2.097675        -0.266279
 H         1.682900         1.775735         1.320245
 H         3.843636         0.823197         1.957643
 H         5.134008        -0.559335        -0.048055
 H         3.653231         0.637219        -1.716260
 H         3.674391        -1.260540        -2.019479
 H         2.005058        -1.226982         2.066231
