19
Iteration:  4638charge 0 multiplicity 1
 C         0.076108        -0.151707         0.006632
 C         1.521391         0.061885        -0.024100
 C         2.293671         1.380558         0.475453
 C         3.294949         0.411982         1.050983
 C         3.971186        -0.492329        -0.010762
 C         3.461219        -0.326824        -1.384732
 O         2.022745        -0.345283        -1.429598
 O         3.326676        -1.754629         0.704777
 C         2.411458        -0.807839         1.151366
 H        -0.561413         0.721434        -0.178476
 H        -0.256198        -0.975958        -0.758772
 H        -0.468783        -0.464334         1.051332
 H         2.446901         2.119941        -0.327443
 H         1.653315         1.911295         1.187890
 H         4.013166         0.764843         1.890830
 H         5.074085        -0.661087         0.039538
 H         3.961560         0.569803        -1.757874
 H         3.753408        -1.106102        -2.027909
 H         1.896795        -1.109776         2.101448
