19
Iteration:   376charge 0 multiplicity 1
 C        -0.004674        -0.066243         0.025388
 C         1.504704         0.029245        -0.072778
 C         2.216747         1.309990         0.339691
 C         3.275339         0.429579         1.129225
 C         4.061204        -0.494809         0.097746
 C         3.529402        -0.348872        -1.325763
 O         2.013641        -0.399229        -1.387801
 O         3.441520        -1.717608         0.621234
 C         2.334306        -0.772788         1.111424
 H        -0.201099        -0.163919         1.120131
 H        -0.569755         0.821629        -0.329888
 H        -0.455855        -1.047214        -0.328502
 H         2.364341         2.109513        -0.503759
 H         1.452305         1.910315         1.013623
 H         3.960818         0.777494         2.062258
 H         5.189063        -0.563521        -0.018823
 H         3.873245         0.486891        -1.888660
 H         3.849310        -1.293469        -1.818608
 H         1.717983        -1.122656         2.097718
