19
Iteration:  3040
 C        -0.011394        -0.057837        -0.102427
 C         1.495073         0.005582        -0.041287
 C         2.296646         1.395243         0.531127
 C         3.269580         0.421358         1.127155
 C         4.052349        -0.566694        -0.014989
 C         3.495925        -0.291044        -1.407152
 O         2.042110        -0.547041        -1.223642
 O         3.378770        -1.633838         0.590403
 C         2.381390        -0.779285         1.120964
 H        -0.400762         0.565567         0.629507
 H        -0.378752         0.413657        -1.131325
 H        -0.571769        -0.939806        -0.002652
 H         2.582524         2.182326        -0.195961
 H         1.438781         1.797052         1.060744
 H         3.777663         0.822853         2.080947
 H         5.181050        -0.638409         0.027725
 H         3.743880         0.600888        -1.870825
 H         3.741187        -1.062985        -2.204405
 H         1.865445        -1.300720         1.986177
