19
Iteration:  1743charge 0 multiplicity 1
 C         0.036350        -0.024948         0.015725
 C         1.576191        -0.052074        -0.099963
 C         2.223011         1.368000         0.338279
 C         3.214385         0.503648         1.107631
 C         4.004252        -0.508005         0.063070
 C         3.536803        -0.350049        -1.416761
 O         2.061335        -0.463436        -1.271702
 O         3.327657        -1.700744         0.681489
 C         2.368472        -0.802672         1.123732
 H        -0.239044         0.058368         1.027904
 H        -0.267231         0.779916        -0.704820
 H        -0.380194        -1.016371        -0.309969
 H         2.670786         1.889531        -0.434735
 H         1.558487         2.119678         0.726699
 H         3.851081         0.827185         1.975194
 H         5.110980        -0.601943         0.226092
 H         3.683680         0.648064        -1.784582
 H         3.867669        -1.254611        -2.021702
 H         1.868794        -1.352840         1.970167
