19
Iteration:  1923
 C         0.092137        -0.105813        -0.170788
 C         1.546040        -0.002780         0.071610
 C         2.222221         1.345967         0.503847
 C         3.307332         0.464767         1.045076
 C         4.054707        -0.526883         0.025558
 C         3.397016        -0.427289        -1.416699
 O         1.997154        -0.402716        -1.335514
 O         3.315762        -1.659466         0.654194
 C         2.413050        -0.734034         1.213534
 H        -0.644108         0.050931         0.721092
 H        -0.139718         0.642266        -0.890299
 H        -0.059073        -1.109677        -0.614721
 H         2.477358         2.073263        -0.299905
 H         1.630612         1.731082         1.280698
 H         4.006634         0.906262         1.773042
 H         5.160665        -0.790898         0.047027
 H         3.807107         0.589161        -1.697935
 H         3.887489        -1.238030        -2.023486
 H         1.935276        -0.946916         2.147580
