19
Iteration:    22
 C         0.012414        -0.089989        -0.018704
 C         1.503783        -0.016168        -0.038131
 C         2.064371         1.376546         0.453365
 C         3.288105         0.510746         1.039609
 C         4.102753        -0.528257         0.030998
 C         3.486513        -0.520622        -1.359998
 O         2.022353        -0.248406        -1.336097
 O         3.496509        -1.728899         0.700354
 C         2.395104        -0.791155         1.063020
 H        -0.341011         0.106233         0.961135
 H        -0.287087         0.703261        -0.678142
 H        -0.395297        -1.009944        -0.450474
 H         2.155144         2.016271        -0.333210
 H         1.421666         1.822221         1.213429
 H         3.799552         0.751563         1.994288
 H         5.228465        -0.589027         0.030686
 H         3.895371         0.229268        -1.976277
 H         3.620270        -1.483128        -1.778265
 H         1.834570        -1.118664         1.951664
