19
Iteration:   292charge 0 multiplicity 1
 C         0.037317        -0.068261        -0.211302
 C         1.542256         0.041760         0.030770
 C         2.160842         1.273687         0.508498
 C         3.319955         0.441155         1.095091
 C         4.024720        -0.487341        -0.054915
 C         3.397774        -0.414039        -1.432200
 O         2.045446        -0.344131        -1.203334
 O         3.386632        -1.679195         0.685420
 C         2.444924        -0.764426         1.153567
 H        -0.468884         0.586649         0.459484
 H        -0.301020         0.068996        -1.238638
 H        -0.211485        -1.191272        -0.080474
 H         2.326506         1.948825        -0.356565
 H         1.585166         1.601605         1.292383
 H         3.940546         0.820566         1.939346
 H         5.078975        -0.701249        -0.144154
 H         3.816280         0.514590        -1.869488
 H         3.622480        -1.367349        -2.089340
 H         2.029970        -1.093178         2.113000
