19
Iteration:   962charge 0 multiplicity 1
 C         0.051922        -0.146679         0.052074
 C         1.544357        -0.005129        -0.117827
 C         2.250826         1.336179         0.357260
 C         3.287122         0.470415         1.074531
 C         3.960609        -0.479849         0.033424
 C         3.552812        -0.344100        -1.358526
 O         2.052304        -0.404242        -1.352339
 O         3.331993        -1.719507         0.731949
 C         2.340410        -0.738290         1.096904
 H        -0.200118         0.381910         0.966577
 H        -0.636288         0.373229        -0.588877
 H        -0.224635        -1.189363        -0.071409
 H         2.615441         1.961001        -0.494672
 H         1.538807         1.872880         1.004772
 H         3.959020         0.684786         1.964519
 H         5.044016        -0.458662         0.160258
 H         3.889269         0.660126        -1.869540
 H         3.819914        -1.217902        -1.948304
 H         1.653358        -1.120021         1.952911
