19
Iteration:  2323charge 0 multiplicity 1
 C         0.003147        -0.050836        -0.016568
 C         1.501023         0.005961        -0.052268
 C         2.266374         1.433367         0.374255
 C         3.287644         0.441003         1.064934
 C         4.038818        -0.527522         0.059795
 C         3.425438        -0.282993        -1.335064
 O         2.021491        -0.465134        -1.303635
 O         3.446137        -1.823279         0.611798
 C         2.313231        -0.770621         1.136108
 H        -0.387421         0.722065         0.754154
 H        -0.273537         0.404161        -0.920158
 H        -0.328529        -1.079871         0.141288
 H         2.620892         1.725443        -0.525175
 H         1.807212         2.093730         1.043000
 H         3.768029         0.799253         1.974903
 H         5.145833        -0.606834         0.113331
 H         3.807052         0.763328        -1.619323
 H         3.929895        -1.063468        -1.968401
 H         1.862440        -1.052730         2.104343
