19
Iteration:  3134
 C         0.057962        -0.196998        -0.140287
 C         1.572937         0.059381         0.033283
 C         2.216585         1.355487         0.485697
 C         3.310894         0.534129         1.116621
 C         3.968607        -0.532039        -0.050010
 C         3.476000        -0.442449        -1.405713
 O         2.095256        -0.340056        -1.268016
 O         3.276299        -1.700527         0.646201
 C         2.383467        -0.731991         1.161280
 H        -0.356639        -0.405964         0.927239
 H        -0.540030         0.611957        -0.514279
 H        -0.289813        -1.142261        -0.774674
 H         2.481368         2.021605        -0.366856
 H         1.669497         1.944916         1.266024
 H         4.120907         0.817494         1.744742
 H         5.065514        -0.597249        -0.044104
 H         3.973595         0.247347        -2.046936
 H         3.660421        -1.337688        -1.929806
 H         1.895391        -0.971927         2.086457
