19
Iteration:  4162charge 0 multiplicity 1
 C         0.019096        -0.325588        -0.047371
 C         1.496008         0.123797         0.062773
 C         2.267933         1.401425         0.462703
 C         3.420973         0.510044         1.033154
 C         4.003544        -0.567786         0.066464
 C         3.505069        -0.356911        -1.342228
 O         2.032278        -0.353388        -1.251573
 O         3.227931        -1.791634         0.466754
 C         2.369144        -0.623881         1.103850
 H        -0.329927         0.005053        -1.098103
 H        -0.204294        -1.477116         0.033172
 H        -0.522722         0.292278         0.636897
 H         2.612918         2.205467        -0.302567
 H         1.912984         1.890342         1.415731
 H         3.951536         0.767556         2.024581
 H         5.148114        -0.735957         0.109545
 H         3.788094         0.580362        -1.729451
 H         3.825615        -1.146697        -1.978399
 H         2.129538        -0.912524         2.173710
