19
Iteration:  1637
 C         0.056302        -0.163384        -0.025027
 C         1.556506         0.087905        -0.019561
 C         2.199800         1.383693         0.411596
 C         3.287225         0.387126         1.035477
 C         4.010148        -0.597817         0.044401
 C         3.482279        -0.432121        -1.308472
 O         2.053210        -0.311683        -1.351415
 O         3.345272        -1.656284         0.741738
 C         2.360006        -0.731427         1.020577
 H        -0.467177         0.491567         0.769251
 H        -0.377055         0.085710        -0.937097
 H        -0.085527        -1.268200         0.109024
 H         2.570444         2.110454        -0.469989
 H         1.510298         1.809786         1.134331
 H         3.964760         0.695754         1.803544
 H         5.111474        -0.610406         0.184290
 H         3.866684         0.415565        -1.749933
 H         3.774285        -1.229623        -2.000737
 H         1.791955        -1.135843         1.811499
