19
Iteration:  2910charge 0 multiplicity 1
 C        -0.047958         0.069408        -0.095869
 C         1.475099         0.000455        -0.075987
 C         2.187095         1.301940         0.424589
 C         3.325241         0.403401         1.082282
 C         4.013924        -0.519476         0.032903
 C         3.566201        -0.332993        -1.353704
 O         1.986041        -0.501626        -1.269580
 O         3.454599        -1.641891         0.653965
 C         2.389155        -0.847569         1.159878
 H        -0.480539         0.068071         0.879127
 H        -0.630131         0.899652        -0.702255
 H        -0.327626        -0.782239        -0.664156
 H         2.608513         2.020550        -0.297269
 H         1.620478         1.683390         1.304362
 H         4.101700         0.811688         1.761720
 H         5.189391        -0.581329        -0.060722
 H         3.646211         0.849698        -1.588150
 H         3.830528        -1.104727        -2.099438
 H         1.950891        -1.395878         2.035251
