19
Iteration:   443
 C        -0.049762        -0.168138        -0.144988
 C         1.538909        -0.047987         0.003041
 C         2.272873         1.288782         0.467373
 C         3.445411         0.460321         1.053004
 C         4.000119        -0.509062        -0.021254
 C         3.485753        -0.268029        -1.364789
 O         2.063685        -0.430518        -1.227013
 O         3.316055        -1.663397         0.622222
 C         2.309771        -0.719947         1.160663
 H        -0.570377         0.251156         0.695828
 H        -0.272050         0.453560        -1.025300
 H        -0.530357        -1.195160        -0.153120
 H         2.326020         2.202509        -0.298824
 H         1.813723         1.855408         1.302716
 H         4.130269         0.895177         1.910783
 H         5.088263        -0.717951        -0.075408
 H         3.887355         0.646939        -1.646124
 H         3.835265        -1.005050        -2.077047
 H         1.644092        -1.237638         2.013887
