19
Iteration:  4230charge 0 multiplicity 1
 C        -0.092514         0.084879        -0.021148
 C         1.441461         0.037349        -0.056639
 C         2.266027         1.269327         0.432533
 C         3.259412         0.453528         1.083682
 C         4.064207        -0.458293         0.031222
 C         3.517803        -0.343771        -1.419799
 O         2.034626        -0.519222        -1.224963
 O         3.510689        -1.691812         0.576763
 C         2.359983        -0.884883         1.169385
 H        -0.471574         1.126240        -0.335401
 H        -0.491670        -0.670618        -0.774028
 H        -0.377891        -0.218749         0.984816
 H         2.583372         1.934970        -0.512385
 H         1.691868         1.924334         1.151416
 H         3.577443         0.869748         2.074172
 H         5.186664        -0.359216        -0.009277
 H         3.852608         0.536855        -1.977507
 H         3.673982        -1.205059        -1.983778
 H         1.723831        -1.386578         1.929722
