19
Iteration:  4473charge 0 multiplicity 1
 C         0.070768        -0.233745        -0.082071
 C         1.486805         0.052539         0.036837
 C         2.258126         1.337518         0.481446
 C         3.424138         0.460684         1.049145
 C         3.982108        -0.587301         0.051888
 C         3.428500        -0.328407        -1.417470
 O         1.998504        -0.298015        -1.317360
 O         3.287345        -1.720100         0.645923
 C         2.443615        -0.732772         1.127041
 H        -0.492168         0.527410        -0.555475
 H         0.064603        -1.142651        -0.660603
 H        -0.459146        -0.289712         0.937651
 H         2.366551         2.117975        -0.269786
 H         1.897887         1.875871         1.335558
 H         4.076621         0.937708         1.797020
 H         5.023172        -0.877974         0.096093
 H         3.895107         0.639088        -1.856834
 H         3.675034        -1.070016        -2.121934
 H         1.710702        -0.968524         1.886295
