19
Iteration:   460
 C         0.037229        -0.157332         0.004464
 C         1.524724         0.028566        -0.024392
 C         2.244626         1.331446         0.373831
 C         3.278807         0.432483         1.085310
 C         4.071999        -0.566676         0.089138
 C         3.485398        -0.259849        -1.340971
 O         2.060515        -0.387114        -1.345318
 O         3.292192        -1.709177         0.602085
 C         2.361905        -0.772327         1.110263
 H        -0.406203         0.257521         0.964193
 H        -0.498118         0.287079        -0.849879
 H        -0.119774        -1.218854         0.140801
 H         2.580699         1.995354        -0.390255
 H         1.621542         2.056223         0.985360
 H         3.861845         0.771955         1.908984
 H         5.161299        -0.724153         0.298158
 H         3.788739         0.789968        -1.811133
 H         3.897862        -0.974419        -2.121043
 H         1.874180        -1.058436         1.996783
