19
Iteration:  1343charge 0 multiplicity 1
 C         0.056709        -0.146435        -0.042525
 C         1.529779         0.025028        -0.021056
 C         2.294055         1.341108         0.406301
 C         3.362648         0.486603         1.012611
 C         3.999991        -0.576000         0.072320
 C         3.495912        -0.286108        -1.381862
 O         2.101323        -0.536164        -1.272605
 O         3.198254        -1.660249         0.618501
 C         2.336645        -0.668908         1.152973
 H        -0.297687        -0.494068         0.985457
 H        -0.511775         0.669140        -0.374548
 H        -0.133916        -1.004982        -0.703797
 H         2.490893         2.062908        -0.438558
 H         1.827553         1.928243         1.153328
 H         4.037975         0.913145         1.778173
 H         5.025937        -0.719397         0.305746
 H         3.827820         0.761291        -1.760469
 H         3.760425        -1.031381        -2.093454
 H         1.731524        -0.969441         2.033580
