19
Iteration:  2196charge 0 multiplicity 1
 C        -0.017081        -0.037564        -0.019256
 C         1.517461        -0.058952        -0.006923
 C         2.252805         1.292140         0.424772
 C         3.308313         0.475488         1.065052
 C         4.074238        -0.506131         0.045309
 C         3.496717        -0.376125        -1.346034
 O         2.070461        -0.464536        -1.305506
 O         3.290535        -1.680227         0.551120
 C         2.329936        -0.718118         1.124401
 H        -0.119906         0.175432         1.046373
 H        -0.375235         0.722495        -0.662843
 H        -0.533540        -0.987654        -0.264019
 H         2.483291         2.224269        -0.204903
 H         1.738515         1.879624         1.206439
 H         3.770650         0.735938         2.018777
 H         5.209050        -0.568867         0.057821
 H         3.954811         0.519166        -1.874935
 H         3.997520        -1.143486        -2.006527
 H         2.009375        -1.015498         2.105795
