19
Iteration:  3911
 C        -0.142387        -0.103323        -0.022473
 C         1.506731        -0.003225        -0.053865
 C         2.348764         1.303277         0.473449
 C         3.394694         0.388586         1.096568
 C         4.037642        -0.461017         0.000622
 C         3.508880        -0.256086        -1.345320
 O         2.041593        -0.450333        -1.226221
 O         3.303642        -1.689105         0.531932
 C         2.371155        -0.760456         1.101356
 H        -0.422747        -0.021524        -1.107338
 H        -0.476801        -1.142081         0.231422
 H        -0.642215         0.710190         0.542531
 H         2.642321         1.974960        -0.389961
 H         1.751951         1.830637         1.228488
 H         4.092758         0.797583         1.950644
 H         5.156971        -0.507444         0.151164
 H         3.851522         0.628182        -1.772720
 H         3.881291        -1.063300        -1.894358
 H         1.797873        -1.191406         1.968872
