19
Iteration:   386charge 0 multiplicity 1
 C        -0.007490        -0.053586        -0.025631
 C         1.490594        -0.038916        -0.037409
 C         2.210480         1.269854         0.421098
 C         3.308690         0.409144         1.060213
 C         4.065716        -0.447969         0.057356
 C         3.514929        -0.371944        -1.370843
 O         1.990866        -0.403661        -1.352114
 O         3.431389        -1.642715         0.652362
 C         2.341276        -0.780656         1.106151
 H        -0.313465         0.061341         1.031961
 H        -0.418038         0.825807        -0.563289
 H        -0.344697        -0.892044        -0.643002
 H         2.516291         1.886692        -0.496188
 H         1.834512         1.790864         1.409011
 H         3.667292         0.683854         2.139229
 H         5.206174        -0.478436         0.186974
 H         3.846664         0.429662        -1.961059
 H         3.784702        -1.291543        -1.799745
 H         1.837847        -1.025900         2.161099
