19
Iteration:   213charge 0 multiplicity 1
 C        -0.012502        -0.183619        -0.054963
 C         1.520659        -0.017392        -0.048360
 C         2.291717         1.251066         0.413396
 C         3.373068         0.465991         1.034979
 C         4.078147        -0.482806         0.050544
 C         3.441197        -0.241859        -1.293649
 O         2.054295        -0.454054        -1.296538
 O         3.237456        -1.696814         0.615214
 C         2.371975        -0.638415         1.128155
 H        -0.339550        -0.504428         0.962910
 H        -0.586682         0.674836        -0.441438
 H        -0.164623        -1.213981        -0.530198
 H         2.642814         2.058222        -0.324429
 H         1.816341         1.786707         1.151360
 H         4.037433         0.908187         1.873975
 H         5.107136        -0.802719         0.021016
 H         3.811785         0.656081        -1.759553
 H         3.879724        -1.007585        -2.103748
 H         1.815380        -0.896840         2.094153
