19
Iteration:  4167
 C         0.014857        -0.284028        -0.046842
 C         1.494989         0.093602         0.017844
 C         2.266281         1.422743         0.513331
 C         3.388255         0.519008         1.006495
 C         4.011018        -0.599240         0.007898
 C         3.503079        -0.328940        -1.319898
 O         2.041242        -0.379726        -1.279046
 O         3.256251        -1.788674         0.488928
 C         2.370228        -0.627765         1.168923
 H        -0.445599        -0.028467        -0.961856
 H        -0.058412        -1.302733        -0.065649
 H        -0.614306         0.215686         0.757305
 H         2.642274         2.147998        -0.209689
 H         1.835095         1.888283         1.393979
 H         3.924027         0.731075         1.872432
 H         5.047677        -0.727096         0.048290
 H         4.036124         0.642720        -1.733913
 H         3.776252        -1.237349        -1.953564
 H         1.970846        -0.898731         2.121752
