19
Iteration:  4555
 C        -0.115535        -0.020007        -0.003419
 C         1.475419         0.006196        -0.099417
 C         2.274444         1.381137         0.498883
 C         3.379661         0.398075         1.086836
 C         4.079661        -0.492961         0.042771
 C         3.458956        -0.284973        -1.336067
 O         1.982068        -0.441511        -1.346234
 O         3.461852        -1.757055         0.605504
 C         2.367112        -0.824982         1.107067
 H        -0.512992        -0.082368        -1.041025
 H        -0.291863        -0.952671         0.512056
 H        -0.466006         0.687853         0.616867
 H         2.473589         2.037397        -0.374754
 H         1.622592         1.869317         1.288933
 H         4.048552         0.742650         1.847012
 H         5.176798        -0.599819         0.045721
 H         3.714290         0.736517        -1.590044
 H         3.874145        -1.027034        -2.118685
 H         1.687607        -1.109634         1.907912
