19
Iteration:  2204charge 0 multiplicity 1
 C         0.008903        -0.074614         0.056773
 C         1.536073        -0.015034        -0.062446
 C         2.253290         1.339208         0.411246
 C         3.328816         0.445212         1.060121
 C         4.052405        -0.521780         0.046908
 C         3.583328        -0.349874        -1.381635
 O         2.039529        -0.472852        -1.275057
 O         3.278345        -1.645466         0.620278
 C         2.297830        -0.752782         1.050727
 H        -0.499770         0.043745         1.119661
 H        -0.291653         0.795004        -0.491024
 H        -0.345584        -1.026306        -0.370502
 H         2.600300         2.014835        -0.484876
 H         1.667983         1.766462         1.228296
 H         3.825724         0.537907         1.954166
 H         5.196203        -0.578525         0.101728
 H         3.918014         0.663132        -1.756551
 H         3.811926        -1.116029        -2.189423
 H         1.765041        -0.973782         1.988067
