19
Iteration:  2330
 C        -0.001692        -0.062036         0.013266
 C         1.514656         0.015740         0.004916
 C         2.288367         1.396780         0.343260
 C         3.290057         0.462987         1.082963
 C         4.042084        -0.533953         0.097495
 C         3.488290        -0.316454        -1.302681
 O         1.999155        -0.457844        -1.311286
 O         3.404804        -1.803058         0.599219
 C         2.355910        -0.746264         1.040149
 H        -0.345207         0.530097         0.750185
 H        -0.436556         0.340640        -0.984455
 H        -0.426117        -1.043030         0.077176
 H         2.472447         1.924715        -0.707151
 H         1.802549         2.136571         1.098686
 H         3.803289         0.757175         2.104220
 H         5.084107        -0.643088         0.003909
 H         3.495793         0.752736        -1.558672
 H         4.009489        -1.029641        -1.875783
 H         1.810677        -1.081745         1.936917
