19
Iteration:  3915
 C        -0.150211        -0.079317        -0.038223
 C         1.500209        -0.012276        -0.032039
 C         2.323522         1.309525         0.470690
 C         3.382761         0.388329         1.097678
 C         4.077502        -0.476392         0.039448
 C         3.484209        -0.240492        -1.367574
 O         2.055627        -0.463135        -1.227278
 O         3.303313        -1.690794         0.520910
 C         2.383765        -0.769972         1.109681
 H        -0.433772         0.016429        -1.152517
 H        -0.475003        -1.147667         0.255327
 H        -0.606312         0.711048         0.520937
 H         2.603225         1.883171        -0.370482
 H         1.712138         1.858341         1.159083
 H         4.102715         0.722009         1.856432
 H         5.185217        -0.574715         0.109204
 H         3.829804         0.794921        -1.730586
 H         3.871785        -1.112904        -1.995585
 H         1.908273        -1.043624         2.099237
