19
Iteration:  1907
 C        -0.022624        -0.056847        -0.214558
 C         1.514298        -0.027367        -0.012141
 C         2.208910         1.290076         0.429212
 C         3.423107         0.477169         1.081095
 C         3.988754        -0.539611        -0.018478
 C         3.450756        -0.350974        -1.363541
 O         2.028074        -0.428347        -1.202617
 O         3.433259        -1.684654         0.699937
 C         2.371517        -0.726530         1.135993
 H        -0.498841         0.043453         0.761072
 H        -0.355025         0.911920        -0.773332
 H        -0.427538        -0.951861        -0.711535
 H         2.386548         1.969235        -0.400195
 H         1.690029         1.952203         1.237774
 H         4.018014         0.652482         1.979197
 H         5.116940        -0.544031         0.019997
 H         3.715702         0.599778        -1.822584
 H         3.427741        -1.318378        -1.873116
 H         1.798012        -1.220075         1.985215
