19
Iteration:   163
 C        -0.012390        -0.106219        -0.141071
 C         1.533633        -0.083654        -0.007417
 C         2.201796         1.263641         0.452151
 C         3.385128         0.482244         1.072723
 C         4.045164        -0.453064         0.047687
 C         3.441404        -0.488824        -1.383290
 O         1.990814        -0.272365        -1.338995
 O         3.403245        -1.613896         0.648974
 C         2.407514        -0.747178         1.213508
 H        -0.439972         0.162740         0.778929
 H        -0.351254         0.562609        -0.929603
 H        -0.458269        -1.165249        -0.426156
 H         2.308951         2.169759        -0.222493
 H         1.541339         1.518344         1.416686
 H         4.025003         0.684165         1.947079
 H         5.177301        -0.588873         0.070873
 H         3.917422         0.308192        -2.102671
 H         3.520166        -1.483034        -1.721631
 H         1.894058        -1.302125         1.982869
