19
Iteration:   427charge 0 multiplicity 1
 C         0.044016        -0.090973        -0.211517
 C         1.490063         0.018616         0.045667
 C         2.199660         1.326445         0.530312
 C         3.336665         0.448634         1.000768
 C         4.067083        -0.529476         0.047136
 C         3.427955        -0.328552        -1.375598
 O         2.011907        -0.462021        -1.258827
 O         3.320587        -1.690045         0.605560
 C         2.475239        -0.732290         1.201840
 H        -0.609798         0.283803         0.622505
 H        -0.234864         0.440570        -1.125776
 H        -0.069998        -1.095842        -0.521471
 H         2.424783         2.053863        -0.162334
 H         1.614289         1.579469         1.459830
 H         3.952946         0.774024         1.770797
 H         5.175439        -0.587383         0.108361
 H         3.561221         0.781479        -1.800985
 H         3.718095        -1.123669        -2.107348
 H         2.121908        -0.945484         2.153780
