19
Iteration:  1417
 C         0.103904        -0.003165        -0.122437
 C         1.559922         0.020093        -0.044980
 C         2.118749         1.276481         0.542278
 C         3.341372         0.515909         1.117410
 C         4.037751        -0.480250         0.094883
 C         3.455782        -0.527868        -1.390326
 O         1.936308        -0.385823        -1.392269
 O         3.430004        -1.704914         0.646223
 C         2.393271        -0.767272         1.143862
 H        -0.407561         0.412145         0.864742
 H        -0.093085         0.657924        -1.069511
 H        -0.343489        -1.045823        -0.216386
 H         2.399404         1.981043        -0.323381
 H         1.547228         1.830170         1.221740
 H         3.887812         1.095348         1.947206
 H         5.184472        -0.498287        -0.020376
 H         3.856442         0.299323        -1.980457
 H         3.670320        -1.541306        -1.728025
 H         1.772334        -1.068073         1.958086
