19
Iteration:  1936
 C         0.076246        -0.169158        -0.103732
 C         1.541646         0.070658        -0.006207
 C         2.219760         1.359393         0.450700
 C         3.393263         0.509276         1.025722
 C         3.980832        -0.519287         0.068070
 C         3.511221        -0.366529        -1.405738
 O         2.035879        -0.398027        -1.335284
 O         3.245518        -1.770841         0.621609
 C         2.396454        -0.713699         1.222884
 H        -0.313751         0.079544         0.864331
 H        -0.437837         0.344646        -0.918529
 H        -0.151157        -1.231708        -0.239503
 H         2.278963         2.260122        -0.154699
 H         1.729345         1.733985         1.384969
 H         4.007629         0.854351         1.907751
 H         5.009992        -0.528898         0.338821
 H         3.832524         0.495788        -2.107915
 H         3.630738        -1.215128        -2.059534
 H         1.940378        -1.059270         2.184556
