19
Iteration:  3883charge 0 multiplicity 1
 C         0.151923        -0.146330         0.040727
 C         1.620979         0.028635        -0.114877
 C         2.183981         1.386737         0.518109
 C         3.282721         0.401321         1.147324
 C         4.020250        -0.547254         0.010580
 C         3.437782        -0.392713        -1.389771
 O         1.990239        -0.276767        -1.354760
 O         3.307245        -1.739140         0.628143
 C         2.391920        -0.743508         1.082519
 H        -0.306311         0.124820        -0.965697
 H        -0.064977        -1.248476         0.133967
 H        -0.338428         0.372799         0.802374
 H         2.456417         1.959873        -0.347930
 H         1.428389         1.978260         1.067162
 H         3.888112         0.675610         1.983031
 H         5.067180        -0.598712         0.245300
 H         3.961232         0.517943        -1.986658
 H         3.663940        -1.319891        -2.081552
 H         1.871810        -0.967019         2.044329
