19
Iteration:  4212
 C        -0.017668         0.032504        -0.008449
 C         1.537977        -0.056730        -0.061899
 C         2.189351         1.329666         0.374679
 C         3.281049         0.394152         1.104164
 C         4.021893        -0.489657         0.082956
 C         3.437927        -0.370888        -1.290253
 O         1.992756        -0.375747        -1.387466
 O         3.452343        -1.692608         0.632932
 C         2.455897        -0.862335         1.133624
 H        -0.417646         0.942403        -0.348495
 H        -0.452092        -0.706975        -0.580320
 H        -0.350604        -0.022636         1.074429
 H         2.527526         1.919206        -0.435970
 H         1.542211         1.880542         1.046253
 H         4.030849         0.802370         1.709117
 H         5.080706        -0.499182         0.039088
 H         3.645927         0.600055        -1.803036
 H         3.884761        -1.248828        -1.872474
 H         1.974758        -1.217969         2.029710
