19
Iteration:  3888
 C         0.136815        -0.149558         0.020409
 C         1.588139         0.043057        -0.070896
 C         2.237519         1.402413         0.514042
 C         3.276828         0.407062         1.137284
 C         4.039251        -0.536538         0.066444
 C         3.409736        -0.386952        -1.414617
 O         1.999695        -0.319803        -1.362339
 O         3.324957        -1.695305         0.589194
 C         2.334067        -0.792800         1.075280
 H        -0.284099        -0.008662        -0.955145
 H         0.026492        -1.212103         0.201629
 H        -0.365349         0.530686         0.795929
 H         2.528433         2.016235        -0.394340
 H         1.512677         1.927911         1.193475
 H         3.975640         0.726050         1.970385
 H         5.149389        -0.658925         0.191715
 H         3.881732         0.430211        -1.838709
 H         3.708428        -1.231190        -1.951369
 H         1.863534        -1.035268         2.022083
