19
Iteration:  2392charge 0 multiplicity 1
 C         0.007473        -0.151849        -0.192570
 C         1.512975         0.053553        -0.006901
 C         2.223964         1.340858         0.427598
 C         3.394747         0.458494         1.004781
 C         4.052966        -0.617230         0.064503
 C         3.425564        -0.411328        -1.293351
 O         2.000796        -0.312447        -1.259525
 O         3.362415        -1.684543         0.652442
 C         2.363445        -0.694148         1.138913
 H        -0.328081        -0.209590         0.912229
 H        -0.526587         0.744258        -0.526360
 H        -0.020666        -1.231436        -0.484293
 H         2.438161         2.016456        -0.398167
 H         1.917305         1.603278         1.400518
 H         3.893260         0.917164         1.796874
 H         5.205326        -0.729568        -0.046858
 H         3.866155         0.456140        -1.900688
 H         3.638480        -1.303617        -1.978904
 H         1.792689        -0.966422         2.029485
