19
Iteration:  3637charge 0 multiplicity 1
 C        -0.012703         0.052341        -0.141282
 C         1.536176        -0.003161        -0.048707
 C         2.212175         1.309514         0.455052
 C         3.315830         0.461529         1.147633
 C         4.000953        -0.404488         0.039330
 C         3.439031        -0.400231        -1.378724
 O         1.996456        -0.571522        -1.317256
 O         3.407920        -1.691682         0.591785
 C         2.461340        -0.824767         1.219240
 H        -0.289639         0.286563         0.836933
 H        -0.361049         0.835145        -0.735487
 H        -0.552562        -0.945673        -0.406651
 H         2.678237         1.971820        -0.251082
 H         1.813693         1.906347         1.205116
 H         3.931122         0.931210         1.945901
 H         5.085508        -0.353893        -0.039185
 H         3.603178         0.611836        -1.831151
 H         3.859858        -1.203247        -1.861009
 H         1.791853        -1.048558         2.037409
