19
Iteration:  3954
 C         0.050409        -0.008827        -0.110620
 C         1.542251        -0.068053         0.006560
 C         2.215513         1.248231         0.494453
 C         3.382443         0.445271         1.027473
 C         3.984880        -0.459916         0.045506
 C         3.393315        -0.274503        -1.377179
 O         2.043345        -0.437795        -1.306487
 O         3.380867        -1.726187         0.648436
 C         2.375429        -0.796362         1.126056
 H        -0.384901         0.497168        -0.969503
 H        -0.437611        -0.995956        -0.114227
 H        -0.322194         0.492829         0.786763
 H         2.554115         2.126062        -0.179411
 H         1.533868         1.627443         1.305981
 H         4.168294         0.776538         1.840623
 H         5.102707        -0.626365         0.050838
 H         3.553660         0.752592        -1.876818
 H         3.735056        -0.947721        -2.126390
 H         1.844346        -1.036050         2.069533
