19
Iteration:  2573
 C        -0.026852        -0.038772        -0.030213
 C         1.524424         0.025178        -0.058293
 C         2.306158         1.318714         0.324830
 C         3.298963         0.467036         1.114039
 C         4.057429        -0.583596         0.137454
 C         3.447222        -0.305688        -1.378123
 O         1.986189        -0.442133        -1.332670
 O         3.372086        -1.699803         0.646060
 C         2.397023        -0.765352         1.143650
 H        -0.419961        -0.173549         1.075030
 H        -0.458791         0.873275        -0.579045
 H        -0.201707        -0.994497        -0.576558
 H         2.609837         2.133894        -0.348644
 H         1.592380         1.974497         0.959408
 H         4.002506         0.531657         2.015421
 H         5.107331        -0.694372         0.311136
 H         3.758259         0.675253        -1.829296
 H         3.865239        -0.994760        -2.117108
 H         1.822424        -1.392320         1.840683
