19
Iteration:  2746charge 0 multiplicity 1
 C         0.035537         0.041180        -0.116037
 C         1.563098        -0.073290         0.023143
 C         2.194133         1.271929         0.459068
 C         3.334214         0.395444         1.103801
 C         3.988691        -0.527892        -0.002733
 C         3.469253        -0.327254        -1.401809
 O         1.963728        -0.446208        -1.325417
 O         3.456611        -1.627677         0.683826
 C         2.327181        -0.816746         1.154740
 H        -0.350473         0.164448         0.859314
 H        -0.039601         1.134357        -0.646609
 H        -0.282699        -0.828230        -0.618568
 H         2.633443         1.883130        -0.310572
 H         1.497074         1.704967         1.166629
 H         3.993730         0.759971         1.911692
 H         5.107117        -0.375734        -0.038337
 H         3.615969         0.706739        -1.703816
 H         3.841225        -1.024184        -2.094570
 H         1.775958        -1.429731         1.906525
