19
Iteration:  1483charge 0 multiplicity 1
 C         0.164390        -0.180547        -0.014978
 C         1.560686         0.039035        -0.078156
 C         2.300993         1.331010         0.403434
 C         3.305863         0.442477         1.077788
 C         3.935907        -0.543546         0.020128
 C         3.466512        -0.236831        -1.347433
 O         2.081703        -0.496092        -1.332521
 O         3.226909        -1.711324         0.650177
 C         2.292334        -0.668723         1.173718
 H        -0.301948         0.272019         0.942310
 H        -0.391036         0.245085        -0.863553
 H        -0.088596        -1.274852         0.023570
 H         2.698706         1.891758        -0.510278
 H         1.866543         2.089619         0.980932
 H         3.968569         0.679726         1.954821
 H         5.041734        -0.696229         0.026570
 H         3.799192         0.886417        -1.706237
 H         3.780317        -1.003675        -2.050615
 H         1.826404        -0.890166         2.110317
