19
Iteration:  1785charge 0 multiplicity 1
 C         0.040836        -0.193295        -0.158751
 C         1.539514         0.020955         0.026003
 C         2.220294         1.399096         0.475050
 C         3.301844         0.546749         1.063926
 C         4.065226        -0.580445        -0.000173
 C         3.485486        -0.460967        -1.375196
 O         2.042678        -0.350047        -1.310474
 O         3.288050        -1.714145         0.693931
 C         2.431530        -0.711808         1.153115
 H        -0.420115         0.425082         0.576281
 H        -0.344080         0.306106        -1.202839
 H        -0.310925        -1.267909        -0.001725
 H         2.457751         2.245498        -0.139422
 H         1.548521         1.708803         1.381766
 H         3.923799         1.035497         1.859920
 H         5.127349        -0.815522        -0.138768
 H         3.923308         0.429515        -1.827432
 H         3.576902        -1.284210        -2.039327
 H         1.674647        -0.919163         1.996996
