19
Iteration:  3065
 C         0.125491         0.001268        -0.062482
 C         1.519154        -0.041125         0.017372
 C         2.270119         1.251622         0.412597
 C         3.329904         0.464647         1.085442
 C         4.001762        -0.462934         0.077328
 C         3.491684        -0.271449        -1.293594
 O         1.972599        -0.500755        -1.333872
 O         3.332904        -1.712807         0.569217
 C         2.374151        -0.769601         1.125820
 H        -0.439586         0.181473         0.927204
 H        -0.347332         0.648730        -0.813177
 H        -0.221518        -1.000041        -0.258001
 H         2.404137         1.831852        -0.536811
 H         1.531874         1.906864         1.014219
 H         3.640999         0.919395         2.036248
 H         5.178691        -0.554523         0.042400
 H         3.715065         0.628202        -1.738102
 H         3.980103        -1.004738        -1.972183
 H         1.787031        -1.135482         1.987559
