19
Iteration:   934charge 0 multiplicity 1
 C         0.023622        -0.198382        -0.083687
 C         1.503166         0.023543         0.006632
 C         2.181268         1.371679         0.480691
 C         3.375446         0.542427         1.037605
 C         4.022531        -0.581652         0.033107
 C         3.552508        -0.491407        -1.366606
 O         1.999633        -0.311105        -1.346053
 O         3.359100        -1.693545         0.669292
 C         2.380146        -0.662248         1.116035
 H        -0.560587         0.368077         0.655244
 H        -0.370581         0.171352        -1.145041
 H        -0.233003        -1.288507        -0.051404
 H         2.267103         2.163773        -0.236479
 H         1.570581         1.727704         1.388085
 H         3.881822         0.773667         1.922452
 H         5.167445        -0.648636         0.144626
 H         3.970868         0.269420        -1.912243
 H         3.658188        -1.505281        -1.820177
 H         1.909443        -0.918496         2.001938
