19
Iteration:  1050
 C         0.008996        -0.134308        -0.125425
 C         1.486881        -0.046252        -0.016843
 C         2.203543         1.326449         0.469436
 C         3.333897         0.463452         1.005661
 C         4.050121        -0.500499         0.053714
 C         3.436137        -0.482927        -1.365210
 O         2.021283        -0.250105        -1.392711
 O         3.405189        -1.701456         0.715990
 C         2.396641        -0.709371         1.221644
 H        -0.549155         0.062389         0.814028
 H        -0.207907         0.620223        -0.926055
 H        -0.224507        -1.107515        -0.571416
 H         2.432450         2.024271        -0.301042
 H         1.606359         1.678767         1.277006
 H         4.011090         0.760675         1.808250
 H         5.136281        -0.453757         0.087448
 H         3.932975         0.338249        -1.970667
 H         3.571122        -1.513539        -1.687870
 H         1.936712        -1.097733         2.187913
