19
Iteration:  3157
 C        -0.008035        -0.138684        -0.107693
 C         1.549303         0.008368         0.033995
 C         2.270624         1.334323         0.403035
 C         3.365052         0.482601         1.012703
 C         4.119104        -0.566461         0.076491
 C         3.464521        -0.386878        -1.311119
 O         1.982278        -0.365039        -1.302332
 O         3.334509        -1.670245         0.613453
 C         2.329420        -0.737559         1.159675
 H        -0.524075         0.030728         0.846593
 H        -0.443730         0.583919        -0.884264
 H        -0.328368        -1.247753        -0.488932
 H         2.243519         2.031987        -0.446882
 H         1.705528         1.753596         1.234597
 H         3.942678         0.727039         1.930000
 H         5.199069        -0.563614         0.118535
 H         3.841635         0.547044        -1.722232
 H         3.806094        -1.062889        -2.051729
 H         1.873432        -1.102388         2.087595
