19
Iteration:  1350charge 0 multiplicity 1
 C         0.108613        -0.201317        -0.066010
 C         1.538839         0.002883        -0.023740
 C         2.300061         1.298411         0.356010
 C         3.355587         0.494758         1.007782
 C         4.018088        -0.553206         0.058068
 C         3.482768        -0.278838        -1.318617
 O         2.083687        -0.493261        -1.244623
 O         3.170221        -1.678319         0.578626
 C         2.316049        -0.625727         1.186492
 H        -0.133901        -0.463033         1.060414
 H        -0.378249         0.887745        -0.302927
 H        -0.346871        -1.026411        -0.704198
 H         2.583849         1.992171        -0.473308
 H         1.805163         1.850266         1.178548
 H         4.149108         1.023176         1.650093
 H         5.136513        -0.806192         0.339913
 H         3.662995         0.690223        -1.610656
 H         3.825391        -1.039158        -2.059209
 H         1.652224        -0.930846         1.980997
