19
Iteration:  4055
 C         0.037880        -0.074150        -0.105869
 C         1.559974        -0.038593         0.029047
 C         2.270711         1.263651         0.432597
 C         3.364816         0.465587         1.070348
 C         4.006006        -0.520780         0.072033
 C         3.399973        -0.317362        -1.369005
 O         2.021261        -0.457968        -1.239341
 O         3.332096        -1.637724         0.535802
 C         2.398267        -0.735790         1.173708
 H        -0.452785         0.889910        -0.443986
 H        -0.096524        -0.842912        -0.924639
 H        -0.504179        -0.458799         0.695077
 H         2.564513         2.009609        -0.406899
 H         1.643744         1.713755         1.242917
 H         3.995062         0.676199         2.043474
 H         5.132097        -0.471108         0.075219
 H         3.594633         0.814571        -1.769121
 H         3.659907        -1.053344        -2.116698
 H         1.822791        -1.179652         2.034377
