19
Iteration:  2570charge 0 multiplicity 1
 C        -0.015792        -0.048784        -0.021910
 C         1.525993         0.006964        -0.029410
 C         2.286393         1.306413         0.326204
 C         3.295341         0.458720         1.120743
 C         4.030014        -0.567116         0.141758
 C         3.466929        -0.319946        -1.389977
 O         2.002016        -0.414639        -1.340484
 O         3.357215        -1.695617         0.645205
 C         2.411812        -0.759954         1.147722
 H        -0.245641        -0.174307         0.971145
 H        -0.509999         0.862955        -0.645187
 H        -0.166443        -0.940647        -0.575492
 H         2.602046         2.117000        -0.328473
 H         1.638537         1.969333         0.865108
 H         3.963777         0.573519         2.032777
 H         5.112663        -0.783645         0.218772
 H         3.785494         0.696321        -1.907761
 H         3.712162        -1.057524        -2.153106
 H         1.813562        -1.335563         1.912922
