19
Iteration:  2289charge 0 multiplicity 1
 C         0.053171        -0.037112        -0.101158
 C         1.530561        -0.049180         0.018569
 C         2.191875         1.309950         0.543420
 C         3.420460         0.495483         1.070379
 C         4.059641        -0.502611         0.046848
 C         3.439646        -0.389676        -1.357182
 O         2.008663        -0.460991        -1.364825
 O         3.329929        -1.707710         0.596042
 C         2.362435        -0.701125         1.141030
 H        -0.408665         0.443040         0.762314
 H        -0.153760         0.495397        -1.032709
 H        -0.439478        -0.979706        -0.259044
 H         2.275503         2.083541        -0.116144
 H         1.670313         1.812974         1.318504
 H         3.967818         0.876658         1.984378
 H         5.118258        -0.660901        -0.020734
 H         3.833570         0.439029        -1.974828
 H         3.668098        -1.283944        -1.976326
 H         1.821733        -0.959969         2.076347
