19
Iteration:  2739
 C         0.090167         0.032420        -0.109239
 C         1.521519        -0.016512        -0.017382
 C         2.207946         1.201887         0.418416
 C         3.346520         0.406970         1.127637
 C         4.022773        -0.485146         0.034752
 C         3.432578        -0.295358        -1.374568
 O         1.971098        -0.459034        -1.315244
 O         3.409144        -1.640203         0.682733
 C         2.369110        -0.826725         1.107168
 H        -0.508197         0.110749         0.899113
 H        -0.107224         0.963367        -0.572996
 H        -0.304540        -0.917585        -0.572275
 H         2.579537         1.969679        -0.263603
 H         1.669994         1.754130         1.237844
 H         3.975867         0.725384         1.959026
 H         5.058109        -0.612229         0.152074
 H         3.529356         0.708664        -1.944741
 H         3.726426        -1.014499        -2.173368
 H         1.873393        -1.234925         1.964343
