19
Iteration:  4052
 C         0.039532        -0.080067        -0.100075
 C         1.528058        -0.041662         0.014974
 C         2.272396         1.289612         0.432144
 C         3.376382         0.438190         1.023830
 C         4.015147        -0.535389         0.077931
 C         3.410042        -0.306145        -1.363908
 O         2.022388        -0.445128        -1.227219
 O         3.329378        -1.644865         0.561119
 C         2.399599        -0.719040         1.170773
 H        -0.485992         0.810693        -0.418764
 H        -0.037383        -0.823042        -0.940389
 H        -0.491979        -0.535292         0.724806
 H         2.651966         2.107492        -0.340678
 H         1.562162         1.679110         1.242873
 H         3.943362         0.563434         1.985786
 H         5.133942        -0.416501         0.019436
 H         3.558904         0.787967        -1.747993
 H         3.707010        -1.027690        -2.126811
 H         1.800458        -1.173391         1.999486
