19
Iteration:  2566
 C         0.017731        -0.045170        -0.038770
 C         1.536514        -0.011267        -0.008008
 C         2.261221         1.299378         0.342211
 C         3.304946         0.439127         1.132601
 C         4.005764        -0.538090         0.114775
 C         3.489614        -0.328580        -1.402229
 O         2.025385        -0.381370        -1.344979
 O         3.333523        -1.693620         0.645086
 C         2.398359        -0.768877         1.153102
 H        -0.192764        -0.159442         1.068882
 H        -0.476305         0.675482        -0.548083
 H        -0.216754        -0.984668        -0.614435
 H         2.664320         2.003542        -0.440833
 H         1.622166         1.967115         0.943300
 H         3.845092         0.748888         1.988335
 H         5.108765        -0.799590         0.068300
 H         3.783500         0.588541        -1.856875
 H         3.590853        -1.188900        -2.141502
 H         1.822022        -1.128486         2.014106
