19
Iteration:  2462charge 0 multiplicity 1
 C        -0.066587        -0.053120        -0.006561
 C         1.468719        -0.001295        -0.037937
 C         2.298854         1.396611         0.447933
 C         3.290367         0.512634         1.101770
 C         4.050550        -0.565808         0.061980
 C         3.573806        -0.322844        -1.384375
 O         2.092573        -0.556900        -1.312603
 O         3.329980        -1.679134         0.581279
 C         2.338581        -0.762228         1.099430
 H        -0.413826         0.444636         0.857522
 H        -0.447966         0.745803        -0.743048
 H        -0.532653        -1.005633         0.057473
 H         2.573558         1.906285        -0.519719
 H         1.641646         1.876793         1.229019
 H         3.893941         0.674189         2.081344
 H         5.094809        -0.672490         0.162599
 H         3.661247         0.664905        -1.848017
 H         3.934186        -0.978597        -2.134054
 H         1.848980        -1.253064         1.973324
