19
Iteration:  3180charge 0 multiplicity 1
 C         0.007416        -0.022369        -0.005270
 C         1.566308        -0.013916        -0.074312
 C         2.213258         1.321920         0.431804
 C         3.289191         0.434255         1.022374
 C         3.997203        -0.524214         0.040269
 C         3.463290        -0.213411        -1.386817
 O         2.079039        -0.512300        -1.332386
 O         3.345089        -1.737494         0.677899
 C         2.385282        -0.770479         1.186586
 H        -0.313815         0.573696         0.831376
 H        -0.373913         0.334435        -1.079396
 H        -0.336840        -1.148430         0.041895
 H         2.599420         1.966549        -0.375722
 H         1.553468         1.879866         1.058120
 H         3.892299         0.731831         1.959523
 H         5.054944        -0.592040         0.098590
 H         3.731913         0.766182        -1.783554
 H         4.019159        -0.822197        -2.090426
 H         1.787660        -1.162038         2.041988
