19
Iteration:    31charge 0 multiplicity 1
 C        -0.016545        -0.050864        -0.060530
 C         1.511442         0.001463        -0.069973
 C         2.140113         1.263403         0.514384
 C         3.266459         0.457614         0.984675
 C         4.026164        -0.475614         0.047544
 C         3.473692        -0.577311        -1.356226
 O         2.043206        -0.216957        -1.389154
 O         3.492256        -1.642175         0.710400
 C         2.397491        -0.810873         1.147022
 H        -0.337640        -0.013281         0.913173
 H        -0.595754         0.675109        -0.538400
 H        -0.328274        -1.132225        -0.342739
 H         2.233029         1.952557        -0.236623
 H         1.507449         1.755443         1.323037
 H         4.025516         0.937760         1.744043
 H         5.205344        -0.443789         0.077673
 H         3.978755         0.124527        -2.010601
 H         3.689063        -1.472850        -1.830196
 H         1.936835        -1.242776         2.080448
