19
Iteration:  2511
 C         0.035008        -0.166768        -0.121110
 C         1.511279         0.028705        -0.011373
 C         2.207454         1.428481         0.492164
 C         3.360959         0.458338         1.108369
 C         4.037475        -0.622321        -0.013733
 C         3.476534        -0.413322        -1.388381
 O         2.045179        -0.331145        -1.331390
 O         3.300298        -1.686770         0.673690
 C         2.410362        -0.703754         1.167127
 H        -0.670933         0.318975         0.643497
 H        -0.343812         0.218150        -1.009490
 H        -0.182638        -1.269177         0.023718
 H         2.640698         2.095579        -0.213333
 H         1.634729         1.719935         1.340943
 H         4.073749         0.682124         1.846872
 H         5.171439        -0.756135        -0.058781
 H         3.865278         0.547133        -1.819412
 H         3.586885        -1.276930        -2.141789
 H         1.691731        -1.020317         1.921569
