19
Iteration:  4836
 C         0.039603         0.111576        -0.124747
 C         1.499960        -0.081535         0.068806
 C         2.216953         1.285903         0.476312
 C         3.260514         0.502358         1.151693
 C         4.080271        -0.475518        -0.003607
 C         3.423059        -0.291509        -1.363637
 O         2.000759        -0.545389        -1.295394
 O         3.392539        -1.698007         0.489363
 C         2.477982        -0.849704         1.233119
 H        -0.218651         1.097080        -0.595454
 H        -0.503766        -0.628232        -0.809638
 H        -0.498144        -0.024874         0.824060
 H         2.514028         1.866817        -0.370710
 H         1.553750         1.794505         1.137189
 H         3.727600         0.715464         2.096181
 H         5.172893        -0.515907        -0.041963
 H         3.770127         0.637523        -1.994878
 H         3.791172        -1.151640        -1.863976
 H         1.884350        -1.242691         2.066164
