19
Iteration:   715
 C         0.018767        -0.038843         0.030575
 C         1.551557        -0.107451        -0.110541
 C         2.264707         1.314375         0.371878
 C         3.224934         0.431432         1.160378
 C         4.040559        -0.410041         0.103790
 C         3.500300        -0.393304        -1.357400
 O         2.035663        -0.459583        -1.420998
 O         3.390075        -1.666198         0.667129
 C         2.329007        -0.764258         1.122218
 H        -0.070278         0.146521         1.097496
 H        -0.500478         0.880773        -0.386115
 H        -0.619571        -0.938889        -0.207833
 H         2.662392         1.953251        -0.462662
 H         1.599942         1.948763         0.946299
 H         3.841417         0.729379         2.008954
 H         5.127336        -0.457103         0.051786
 H         3.766236         0.591238        -1.759535
 H         4.014468        -0.998483        -2.249206
 H         1.673355        -1.152654         1.974474
