19
Iteration:  3444
 C         0.077279        -0.166814         0.018080
 C         1.575093         0.033936        -0.017228
 C         2.245975         1.316328         0.404059
 C         3.330464         0.434241         0.986156
 C         3.967438        -0.493869         0.026832
 C         3.505906        -0.319754        -1.295968
 O         2.068405        -0.367387        -1.325917
 O         3.252913        -1.701628         0.647461
 C         2.328951        -0.751442         1.104256
 H        -0.271356         0.041722         1.003147
 H        -0.383238         0.549908        -0.683225
 H        -0.171773        -1.160031        -0.177364
 H         2.467368         1.967965        -0.441793
 H         1.662594         1.783276         1.206446
 H         4.012958         0.718086         1.798247
 H         5.017037        -0.634993         0.036945
 H         4.057653         0.557141        -1.671353
 H         3.724025        -1.022393        -2.068659
 H         1.830237        -1.245832         1.942811
