19
Iteration:  4250charge 0 multiplicity 1
 C         0.032911         0.008740        -0.079985
 C         1.522847        -0.038501         0.019343
 C         2.215175         1.303983         0.439859
 C         3.373828         0.443177         1.089512
 C         4.036419        -0.420996         0.029885
 C         3.394397        -0.348625        -1.334075
 O         2.017628        -0.565889        -1.270816
 O         3.362149        -1.649159         0.562623
 C         2.398831        -0.776737         1.107893
 H        -0.083438         1.116331        -0.382017
 H        -0.469751        -0.663198        -0.904263
 H        -0.484444        -0.225773         0.833338
 H         2.487636         2.088035        -0.318273
 H         1.538203         1.790228         1.162541
 H         4.039414         0.451743         2.026586
 H         5.167135        -0.537871         0.149111
 H         3.693303         0.713621        -1.702812
 H         3.859692        -1.026771        -2.031215
 H         1.945454        -1.244500         2.033174
