19
Iteration:  4291
 C        -0.019840        -0.220126        -0.036892
 C         1.555138        -0.012463         0.013671
 C         2.261404         1.381479         0.481769
 C         3.349347         0.379395         0.989862
 C         4.041996        -0.593787        -0.028539
 C         3.511759        -0.308873        -1.343012
 O         2.031521        -0.287217        -1.275662
 O         3.289281        -1.692478         0.650326
 C         2.362009        -0.705215         1.092681
 H        -0.488612         0.366951        -0.831476
 H        -0.285424        -1.345621        -0.093348
 H        -0.561523        -0.025070         0.858985
 H         2.257459         1.930241        -0.407919
 H         2.034239         2.025250         1.338946
 H         3.848826         0.710178         1.953524
 H         5.159442        -0.632135        -0.174969
 H         3.974156         0.655470        -1.690722
 H         3.880524        -1.000243        -2.190810
 H         1.768713        -0.972453         2.014829
