19
Iteration:  3377
 C        -0.010966        -0.078175        -0.125826
 C         1.523122        -0.018344         0.055039
 C         2.181734         1.330356         0.465031
 C         3.354316         0.452839         1.099557
 C         4.064370        -0.481945        -0.016140
 C         3.488957        -0.412556        -1.409665
 O         2.040546        -0.377903        -1.255454
 O         3.313509        -1.664227         0.584866
 C         2.412005        -0.798054         1.192548
 H        -0.576451         0.548581         0.502910
 H        -0.100158         0.257363        -1.157169
 H        -0.332577        -1.084503         0.135893
 H         2.570206         1.902062        -0.422233
 H         1.581681         1.930561         1.181757
 H         3.969131         0.771598         2.015568
 H         5.170585        -0.713260        -0.035995
 H         3.651259         0.612249        -1.927044
 H         3.781677        -1.277193        -2.024471
 H         1.919876        -1.122194         2.141685
