19
Iteration:  3177
 C        -0.015099        -0.034873        -0.028340
 C         1.534548        -0.019531        -0.092341
 C         2.201619         1.309721         0.427940
 C         3.329918         0.431302         1.036674
 C         3.979514        -0.524444         0.045311
 C         3.450991        -0.217595        -1.371731
 O         2.083407        -0.488865        -1.304780
 O         3.347615        -1.739133         0.679698
 C         2.413876        -0.748230         1.155239
 H        -0.262242         0.556681         0.872666
 H        -0.301255         0.306666        -0.959291
 H        -0.308449        -1.167675        -0.053949
 H         2.676142         1.954003        -0.364903
 H         1.526086         1.925297         1.109857
 H         3.860573         0.814079         1.873469
 H         5.122775        -0.726297         0.049326
 H         3.742328         0.723629        -1.736618
 H         3.967479        -0.896577        -2.000915
 H         1.798205        -1.123984         1.945069
