19
Iteration:  3771
 C        -0.012047         0.016365         0.016418
 C         1.514890        -0.007283         0.002973
 C         2.201673         1.347897         0.347727
 C         3.259377         0.473412         1.018389
 C         4.035618        -0.536325         0.024393
 C         3.567307        -0.392608        -1.305146
 O         2.026596        -0.425262        -1.278380
 O         3.426634        -1.720084         0.626035
 C         2.330952        -0.847210         1.101657
 H        -0.502190         0.866313         0.590036
 H        -0.395072         0.000635        -1.074686
 H        -0.301800        -0.816531         0.500905
 H         2.401690         1.918542        -0.544736
 H         1.628804         1.767328         1.156157
 H         3.924909         0.971279         1.826438
 H         5.173420        -0.480292         0.067904
 H         3.788840         0.660979        -1.794667
 H         3.760038        -1.115557        -2.123343
 H         1.961857        -1.025515         2.162368
