19
Iteration:  1457
 C        -0.031514        -0.075996        -0.096140
 C         1.493783         0.003944        -0.023799
 C         2.283742         1.315105         0.387492
 C         3.388224         0.504041         1.066332
 C         4.123750        -0.552958         0.055995
 C         3.509949        -0.326966        -1.284911
 O         1.990998        -0.474294        -1.271224
 O         3.325339        -1.737916         0.616597
 C         2.319968        -0.702515         1.108538
 H        -0.524463         0.519574         0.552393
 H        -0.414540         0.205483        -1.091223
 H        -0.347822        -1.080752         0.026794
 H         2.352204         2.088003        -0.386011
 H         1.715616         1.922767         1.233745
 H         4.070027         0.760149         1.907678
 H         5.239007        -0.649880         0.139959
 H         3.693973         0.806159        -1.549565
 H         3.733678        -1.024724        -2.186133
 H         1.830149        -1.053896         2.070411
