19
Iteration:  3813charge 0 multiplicity 1
 C         0.110733        -0.052541        -0.095921
 C         1.568561        -0.005855        -0.010511
 C         2.277806         1.281843         0.445360
 C         3.308865         0.446193         1.060919
 C         3.952051        -0.483486         0.022095
 C         3.444294        -0.313378        -1.395590
 O         1.970631        -0.538576        -1.245537
 O         3.313497        -1.624708         0.583603
 C         2.387763        -0.760637         1.211718
 H        -0.315790         0.981189         0.005020
 H        -0.156200        -0.452133        -1.117212
 H        -0.304648        -0.718267         0.743261
 H         2.727442         1.997757        -0.238136
 H         1.681921         1.813918         1.134467
 H         4.178784         0.735645         1.775449
 H         5.079910        -0.503391         0.121025
 H         3.761959         0.740698        -1.746895
 H         3.958260        -0.968853        -2.061824
 H         1.698218        -1.284487         1.926171
