19
Iteration:  1239charge 0 multiplicity 1
 C         0.127867        -0.204659        -0.072901
 C         1.558941        -0.011455         0.005632
 C         2.303949         1.369773         0.368254
 C         3.357290         0.497218         1.083865
 C         3.971100        -0.571413         0.049569
 C         3.465239        -0.247995        -1.364597
 O         2.054146        -0.477921        -1.257415
 O         3.186406        -1.693653         0.595092
 C         2.372690        -0.675656         1.164427
 H        -0.316156         0.306719         0.792438
 H        -0.494844         0.232147        -1.016120
 H        -0.100076        -1.325361        -0.134912
 H         2.636073         1.891820        -0.474652
 H         1.643104         1.974665         1.027982
 H         3.935746         0.766305         1.945599
 H         5.034260        -0.957510         0.211344
 H         3.647995         0.782957        -1.629738
 H         3.894691        -0.840514        -2.222600
 H         1.845688        -0.877998         2.093722
