19
Iteration:  2442
 C         0.070303        -0.006873         0.003949
 C         1.601484         0.025727        -0.112722
 C         2.225113         1.297231         0.394031
 C         3.309305         0.418774         1.046356
 C         4.005440        -0.446719         0.068758
 C         3.471340        -0.357846        -1.322697
 O         2.059730        -0.499412        -1.288566
 O         3.300263        -1.672372         0.618168
 C         2.328590        -0.770744         1.099428
 H        -0.201617         0.183413         1.094939
 H        -0.317596         0.791593        -0.617573
 H        -0.143330        -1.013110        -0.372696
 H         2.468160         2.034901        -0.385364
 H         1.431301         1.463391         1.180178
 H         3.976580         0.669750         1.967723
 H         5.078157        -0.529901         0.072714
 H         3.590435         0.636986        -1.742253
 H         3.846831        -1.271818        -1.848210
 H         1.835442        -1.053177         2.052722
