19
Iteration:   723
 C        -0.006566        -0.090295         0.106760
 C         1.572032        -0.110336        -0.125203
 C         2.283592         1.319858         0.333234
 C         3.262990         0.458024         1.175237
 C         4.004289        -0.469948         0.136398
 C         3.487591        -0.327161        -1.412967
 O         2.057596        -0.454303        -1.474387
 O         3.361002        -1.667454         0.648625
 C         2.330699        -0.751815         1.124429
 H        -0.174443         0.080118         1.206552
 H        -0.289645         0.770355        -0.565146
 H        -0.704707        -0.988584        -0.083778
 H         2.767754         1.984905        -0.289204
 H         1.596201         1.969834         0.946679
 H         3.869819         0.819327         2.095735
 H         5.147288        -0.408323         0.389563
 H         3.752324         0.769985        -1.824427
 H         3.966438        -1.317967        -1.787334
 H         1.619978        -0.998044         1.863765
