19
Iteration:  1114charge 0 multiplicity 1
 C         0.052619        -0.121386        -0.039844
 C         1.584413        -0.028971        -0.016875
 C         2.258967         1.303853         0.393927
 C         3.336631         0.456546         1.129249
 C         4.030013        -0.581590         0.052690
 C         3.472520        -0.205092        -1.415605
 O         2.144061        -0.531572        -1.322807
 O         3.222846        -1.644011         0.614499
 C         2.285615        -0.712503         1.170913
 H        -0.429477         0.173645         0.983023
 H        -0.391701         0.359888        -0.931002
 H        -0.328483        -1.150588         0.029221
 H         2.669870         2.035758        -0.396761
 H         1.604065         1.929182         0.968011
 H         4.004948         0.969779         1.885576
 H         5.064413        -0.702580         0.110753
 H         3.669610         0.800328        -1.699278
 H         3.829295        -0.865793        -2.213665
 H         1.652386        -0.997040         2.108012
