19
Iteration:  1618
 C         0.030324        -0.126529         0.008493
 C         1.592407        -0.041857        -0.064461
 C         2.253690         1.343143         0.349331
 C         3.323992         0.528299         1.081257
 C         4.010446        -0.493746         0.102621
 C         3.512709        -0.297632        -1.349525
 O         2.050738        -0.435903        -1.399204
 O         3.288675        -1.763321         0.635324
 C         2.296139        -0.756505         1.169114
 H        -0.162161         0.638346         0.851712
 H        -0.571429         0.247570        -0.835435
 H        -0.132278        -1.177295         0.174649
 H         2.660067         2.049227        -0.323935
 H         1.749046         1.853575         1.158109
 H         3.708871         0.946036         1.989791
 H         5.029782        -0.753897         0.136813
 H         4.028195         0.660444        -1.806288
 H         3.832470        -1.089816        -1.936319
 H         1.651564        -0.974406         2.050298
