19
Iteration:  2793
 C         0.001932        -0.146085        -0.040148
 C         1.524904        -0.025201         0.025010
 C         2.241666         1.350993         0.466431
 C         3.339540         0.449143         1.103262
 C         4.020014        -0.529705         0.033734
 C         3.502696        -0.362154        -1.358486
 O         2.104134        -0.391531        -1.327863
 O         3.304279        -1.644838         0.559276
 C         2.310883        -0.749976         1.100471
 H        -0.447979         0.242455         0.990505
 H        -0.230583         0.588028        -0.831228
 H        -0.238834        -1.218669        -0.364115
 H         2.516078         2.043015        -0.322492
 H         1.874772         1.819160         1.405183
 H         3.941507         0.802071         1.948414
 H         5.027412        -0.776345         0.134721
 H         3.724743         0.603041        -1.844509
 H         3.674666        -1.253390        -1.979594
 H         1.787370        -1.030860         1.998689
