19
Iteration:  3414
 C         0.051100        -0.252772         0.007436
 C         1.506657         0.105437        -0.075845
 C         2.257700         1.363482         0.463886
 C         3.364859         0.509323         1.103313
 C         4.054944        -0.628603         0.028637
 C         3.493759        -0.358607        -1.362655
 O         2.006698        -0.301658        -1.393182
 O         3.245826        -1.713530         0.657721
 C         2.416322        -0.719406         1.130820
 H        -0.516569         0.398530         0.826264
 H        -0.577344        -0.195631        -1.026665
 H        -0.051929        -1.336754         0.170838
 H         2.551103         2.071699        -0.238929
 H         1.577179         1.884008         1.108305
 H         3.894263         0.731277         2.004778
 H         5.039712        -0.949418         0.072542
 H         4.125231         0.614965        -1.650293
 H         3.776239        -1.011868        -2.229284
 H         1.858406        -1.103931         1.985481
