19
Iteration:  3178charge 0 multiplicity 1
 C        -0.008039        -0.027730        -0.018397
 C         1.546811        -0.017381        -0.087120
 C         2.204921         1.314120         0.430895
 C         3.315247         0.431749         1.029246
 C         3.984734        -0.524356         0.043822
 C         3.455273        -0.214207        -1.379174
 O         2.082547        -0.497754        -1.314540
 O         3.346684        -1.739383         0.679649
 C         2.404373        -0.755711         1.167805
 H        -0.275055         0.563535         0.857473
 H        -0.324823         0.312883        -1.010047
 H        -0.321660        -1.183239        -0.023440
 H         2.655218         1.957673        -0.372372
 H         1.531168         1.911781         1.090040
 H         3.870058         0.784238         1.908870
 H         5.101961        -0.680422         0.067169
 H         3.737394         0.716587        -1.752453
 H         3.985426        -0.853218        -2.021031
 H         1.795609        -1.139674         1.975498
