19
Iteration:  2938charge 0 multiplicity 1
 C         0.048466        -0.063354        -0.020030
 C         1.555498        -0.088962         0.032350
 C         2.223173         1.349927         0.382643
 C         3.333363         0.442182         1.146750
 C         3.978130        -0.516575         0.034123
 C         3.550837        -0.246963        -1.389064
 O         2.037226        -0.454386        -1.304983
 O         3.277957        -1.711708         0.616534
 C         2.384527        -0.729922         1.115021
 H        -0.551152        -0.106568         0.949389
 H        -0.382169         0.592228        -0.690252
 H        -0.150245        -0.935429        -0.784989
 H         2.488847         1.933471        -0.521793
 H         1.662838         1.856082         1.145910
 H         3.972188         0.790116         1.960508
 H         5.003596        -0.705638        -0.098213
 H         3.792336         0.707078        -1.782520
 H         3.755278        -1.123709        -2.031042
 H         1.940307        -1.028423         2.055892
