19
Iteration:  3769
 C        -0.007358         0.010815         0.013009
 C         1.518483        -0.003680         0.000965
 C         2.209431         1.325267         0.343730
 C         3.256210         0.480825         1.010980
 C         4.048528        -0.532647         0.032371
 C         3.550555        -0.393469        -1.323092
 O         2.034856        -0.406912        -1.277842
 O         3.413690        -1.720914         0.628293
 C         2.319859        -0.836835         1.123229
 H        -0.482719         0.820306         0.573990
 H        -0.340179         0.017740        -1.028939
 H        -0.307270        -0.929390         0.499760
 H         2.367023         1.923010        -0.521546
 H         1.692453         1.728054         1.138430
 H         3.909081         0.890166         1.873157
 H         5.164475        -0.433365         0.018360
 H         3.785661         0.626724        -1.864931
 H         3.773463        -1.124657        -2.057038
 H         1.977422        -1.002196         2.152927
