19
Iteration:  3768charge 0 multiplicity 1
 C        -0.004611         0.007421         0.010493
 C         1.519961        -0.001910        -0.000833
 C         2.213922         1.310765         0.341716
 C         3.257657         0.483238         1.007987
 C         4.055991        -0.529574         0.038233
 C         3.538620        -0.390219        -1.334904
 O         2.039304        -0.398186        -1.277731
 O         3.406445        -1.720801         0.629688
 C         2.316880        -0.828551         1.134848
 H        -0.466736         0.798560         0.563671
 H        -0.314681         0.026741        -1.001863
 H        -0.318629        -0.996009         0.499938
 H         2.354669         1.940195        -0.517852
 H         1.704762         1.733808         1.150383
 H         3.887771         0.838691         1.881144
 H         5.151770        -0.418847        -0.000119
 H         3.786273         0.588439        -1.883263
 H         3.787328        -1.145494        -2.028207
 H         1.978950        -1.000653         2.139970
