19
Iteration:  1834charge 0 multiplicity 1
 C        -0.020313        -0.179292        -0.042007
 C         1.536732         0.038672        -0.040586
 C         2.256381         1.429989         0.396241
 C         3.372965         0.470047         1.096802
 C         3.974998        -0.614604         0.119615
 C         3.533744        -0.364275        -1.321916
 O         2.065451        -0.438046        -1.346125
 O         3.319790        -1.661763         0.607745
 C         2.335719        -0.710017         1.103029
 H        -0.444234         0.230889         0.965879
 H        -0.555235         0.319465        -0.775581
 H        -0.228788        -1.233945        -0.023429
 H         2.542050         2.003046        -0.519882
 H         1.654838         2.035350         0.987624
 H         4.052359         0.803498         1.868757
 H         5.095995        -0.706960         0.062426
 H         3.637366         0.630880        -1.656272
 H         3.864358        -1.225727        -1.984193
 H         1.799260        -1.026051         1.958291
