19
Iteration:  4455charge 0 multiplicity 1
 C         0.052779        -0.219206        -0.008387
 C         1.567643        -0.046716         0.004196
 C         2.185660         1.302471         0.373412
 C         3.371762         0.442044         0.999535
 C         3.998430        -0.574167        -0.003013
 C         3.476984        -0.369769        -1.332830
 O         2.022113        -0.163158        -1.341268
 O         3.275573        -1.742499         0.629886
 C         2.371633        -0.699460         1.215868
 H        -0.437448         0.822145        -0.123892
 H        -0.268658        -1.067905        -0.746903
 H        -0.100221        -0.507987         1.007033
 H         2.584094         2.115142        -0.367383
 H         1.473364         1.924049         1.135118
 H         4.057567         0.697160         1.908615
 H         5.131192        -0.607126        -0.032892
 H         4.080810         0.420206        -1.710978
 H         3.820396        -1.216877        -2.127914
 H         2.053609        -1.026058         2.257812
