19
Iteration:  2467
 C        -0.097533        -0.053068        -0.014096
 C         1.511893        -0.000310        -0.036115
 C         2.285821         1.412042         0.418643
 C         3.317094         0.500384         1.130293
 C         4.031993        -0.583925         0.073863
 C         3.562996        -0.323357        -1.395126
 O         2.079450        -0.513228        -1.298562
 O         3.326719        -1.661059         0.584735
 C         2.366643        -0.788335         1.099839
 H        -0.378233         0.592519         0.941133
 H        -0.380589         0.497263        -0.883548
 H        -0.532500        -1.107670        -0.066804
 H         2.518677         1.838142        -0.530414
 H         1.546517         1.886105         1.042224
 H         3.848216         0.632304         2.028225
 H         5.159235        -0.804721         0.165453
 H         3.551593         0.762970        -1.653995
 H         3.903034        -1.129627        -2.153313
 H         1.984693        -1.261759         2.008621
