19
Iteration:  1059
 C        -0.030422        -0.178140        -0.093435
 C         1.515121        -0.021582         0.012926
 C         2.208748         1.362206         0.445154
 C         3.301865         0.411556         1.036467
 C         4.070899        -0.502791         0.026842
 C         3.565961        -0.512530        -1.375444
 O         1.980978        -0.219603        -1.371228
 O         3.359428        -1.627042         0.737956
 C         2.395876        -0.789690         1.136413
 H        -0.611291         0.199739         0.907898
 H        -0.475920         0.491046        -0.821843
 H        -0.304931        -1.221666        -0.405825
 H         2.479446         2.070924        -0.412001
 H         1.724914         1.940348         1.195788
 H         4.043128         0.735862         1.882314
 H         5.117474        -0.523074         0.085342
 H         4.080196         0.195375        -2.011306
 H         3.775310        -1.437555        -1.913138
 H         1.850642        -1.046528         2.164802
