19
Iteration:  3759charge 0 multiplicity 1
 C         0.027575        -0.089101        -0.002235
 C         1.518588        -0.012228        -0.012611
 C         2.220038         1.260083         0.361859
 C         3.327297         0.426570         1.002511
 C         4.061324        -0.482035         0.068942
 C         3.428877        -0.383009        -1.407988
 O         2.061046        -0.352386        -1.295073
 O         3.344638        -1.696472         0.647265
 C         2.364535        -0.717205         1.181285
 H        -0.367498         0.738432         0.620857
 H        -0.332770         0.092073        -1.053903
 H        -0.370620        -1.021518         0.257006
 H         2.400418         2.004190        -0.381790
 H         1.735207         1.834653         1.095834
 H         3.826011         0.693354         1.993919
 H         5.191752        -0.556875         0.078796
 H         3.922572         0.507426        -2.010761
 H         3.777783        -1.331153        -1.801947
 H         1.811003        -1.135207         2.070878
