19
Iteration:  2352
 C         0.048331        -0.103396         0.028227
 C         1.529120         0.021158        -0.097851
 C         2.267560         1.282969         0.424310
 C         3.326486         0.434207         1.048955
 C         4.054095        -0.522175         0.048138
 C         3.494525        -0.337756        -1.395153
 O         2.085793        -0.439765        -1.313190
 O         3.277173        -1.646471         0.583377
 C         2.273783        -0.732612         1.205812
 H        -0.217304         0.309663         0.918149
 H        -0.533122         0.430029        -0.833959
 H        -0.230707        -1.149231        -0.061109
 H         2.635975         1.990527        -0.425524
 H         1.606923         1.809288         1.246654
 H         3.992656         0.937422         1.872764
 H         5.086007        -0.724263         0.175500
 H         3.780821         0.645867        -1.826342
 H         3.814827        -1.209416        -1.873579
 H         1.791690        -1.089747         2.135879
