19
Iteration:  1100
 C         0.134960        -0.195407         0.033944
 C         1.568725        -0.003294        -0.087289
 C         2.272885         1.313722         0.384779
 C         3.321389         0.513576         1.093303
 C         3.960605        -0.499832         0.100376
 C         3.581402        -0.275399        -1.366943
 O         2.016262        -0.477784        -1.358026
 O         3.180243        -1.683741         0.599435
 C         2.346880        -0.700353         1.130135
 H        -0.142429         0.498253         0.932336
 H        -0.381749         0.281667        -0.736441
 H        -0.037763        -1.277611        -0.033530
 H         2.547275         1.954545        -0.592367
 H         1.687371         1.760485         1.223225
 H         3.917280         0.824199         2.061694
 H         5.021277        -0.816833         0.256409
 H         3.718377         0.786256        -1.513323
 H         4.058851        -1.022113        -2.038849
 H         1.682409        -1.161743         1.917838
