19
Iteration:  3479
 C        -0.063163         0.015839        -0.150063
 C         1.504929        -0.025345         0.028015
 C         2.284620         1.300716         0.460091
 C         3.338304         0.405736         1.118842
 C         4.043886        -0.438471        -0.005017
 C         3.438729        -0.360133        -1.373363
 O         2.012481        -0.548112        -1.234898
 O         3.422442        -1.642883         0.602425
 C         2.376635        -0.789697         1.118651
 H        -0.590490        -0.098988         0.827252
 H        -0.347301         1.078399        -0.492480
 H        -0.404706        -0.569959        -0.878578
 H         2.539375         1.987631        -0.316809
 H         1.723452         1.905815         1.165130
 H         4.005879         0.671339         1.932169
 H         5.062277        -0.245770        -0.033727
 H         3.746483         0.594247        -1.837239
 H         3.811936        -1.294569        -1.800602
 H         1.872340        -1.204583         1.996125
