19
Iteration:  4741charge 0 multiplicity 1
 C        -0.017193        -0.269097        -0.043291
 C         1.516871         0.068298        -0.017604
 C         2.277277         1.434029         0.489714
 C         3.369233         0.436589         1.075117
 C         4.055656        -0.627927        -0.002546
 C         3.482433        -0.354369        -1.361116
 O         2.069253        -0.221763        -1.285101
 O         3.250354        -1.701367         0.585597
 C         2.397019        -0.747387         1.118364
 H        -0.718233        -0.126367        -0.947240
 H        -0.177614        -1.306220         0.181854
 H        -0.443034         0.126979         0.784907
 H         2.696206         2.038248        -0.330054
 H         1.663205         1.952934         1.284408
 H         3.813398         0.745633         1.963006
 H         5.121275        -0.816285        -0.033843
 H         3.834052         0.535633        -1.819247
 H         3.709428        -1.241241        -2.042409
 H         1.875940        -1.329686         1.851224
