19
Iteration:  1267charge 0 multiplicity 1
 C        -0.041857        -0.075701        -0.117179
 C         1.491563         0.042852        -0.019895
 C         2.251370         1.349601         0.486115
 C         3.351290         0.484974         1.020856
 C         4.035309        -0.505435         0.046159
 C         3.503302        -0.447494        -1.344735
 O         2.028322        -0.434142        -1.284011
 O         3.376443        -1.665034         0.652556
 C         2.372787        -0.770692         1.081560
 H        -0.484411         0.585579         0.611428
 H        -0.498752         0.179234        -0.977992
 H        -0.220390        -1.104724         0.048004
 H         2.365347         2.259933        -0.192548
 H         1.653415         1.704474         1.361367
 H         3.947747         0.727719         1.914836
 H         5.037388        -0.739377         0.174557
 H         3.870565         0.491442        -1.956496
 H         3.887767        -1.264199        -1.935521
 H         1.864692        -1.110066         2.025010
