19
Iteration:   624charge 0 multiplicity 1
 C        -0.004608        -0.182436         0.076213
 C         1.518320         0.057720        -0.118534
 C         2.220421         1.310795         0.350835
 C         3.331671         0.413363         1.101958
 C         4.040734        -0.592611         0.097307
 C         3.501379        -0.302673        -1.324652
 O         2.078973        -0.325110        -1.381733
 O         3.356104        -1.679375         0.625223
 C         2.302238        -0.709271         1.106383
 H        -0.400474         0.185252         1.089611
 H        -0.579792         0.212086        -0.810070
 H        -0.162813        -1.303372         0.080612
 H         2.421332         2.036594        -0.393194
 H         1.633810         1.941240         1.079798
 H         3.879297         0.694917         2.043597
 H         5.177061        -0.743995         0.215846
 H         3.910659         0.539429        -1.817992
 H         3.937539        -1.233380        -1.991691
 H         1.764431        -1.110189         1.933117
