19
Iteration:   341
 C         0.066073        -0.186677         0.041267
 C         1.559270         0.011597        -0.066060
 C         2.233592         1.338011         0.337315
 C         3.346834         0.377546         1.084603
 C         4.033269        -0.509260         0.075072
 C         3.518795        -0.244680        -1.384123
 O         2.064149        -0.435046        -1.332890
 O         3.263636        -1.689833         0.612202
 C         2.292293        -0.664439         1.174396
 H        -0.222939         0.023123         1.104363
 H        -0.573225         0.432542        -0.613336
 H        -0.129332        -1.192686        -0.207592
 H         2.497801         1.950812        -0.537806
 H         1.476717         1.822228         1.101924
 H         3.957891         0.721696         1.932714
 H         5.144849        -0.721452         0.092562
 H         3.840433         0.692001        -1.760097
 H         3.878601        -0.989923        -1.958978
 H         1.745439        -1.124566         2.029463
