19
Iteration:  4661
 C         0.070387         0.000470        -0.031287
 C         1.546970        -0.031060        -0.033638
 C         2.233189         1.239661         0.435787
 C         3.289768         0.414969         1.160887
 C         4.062056        -0.460982         0.049464
 C         3.426558        -0.340819        -1.390821
 O         2.002714        -0.443710        -1.284997
 O         3.405245        -1.668159         0.557960
 C         2.352539        -0.798600         1.121203
 H        -0.171926         1.085554        -0.090578
 H        -0.581592        -0.579065        -0.795488
 H        -0.451006        -0.143749         1.001249
 H         2.578009         1.903401        -0.386978
 H         1.482391         1.867994         0.952153
 H         3.861838         0.894007         2.022750
 H         5.185879        -0.440792         0.036617
 H         3.720389         0.551627        -1.939524
 H         3.775101        -1.192894        -1.958190
 H         1.762658        -1.365578         1.856624
