19
Iteration:  3973charge 0 multiplicity 1
 C        -0.053471        -0.107012        -0.020503
 C         1.530161         0.079237        -0.051390
 C         2.259159         1.364488         0.495432
 C         3.270298         0.425295         1.163110
 C         4.097107        -0.550649         0.018135
 C         3.544499        -0.398133        -1.361702
 O         1.953803        -0.421814        -1.343711
 O         3.390460        -1.637240         0.580480
 C         2.410258        -0.796120         1.132992
 H        -0.418417         0.627363        -0.678220
 H        -0.292648        -1.004099        -0.489118
 H        -0.637210        -0.008201         0.972812
 H         2.467374         2.147787        -0.258468
 H         1.605926         1.874692         1.267990
 H         3.905117         0.661252         1.907630
 H         5.134846        -0.610156        -0.177390
 H         3.933977         0.562089        -1.933686
 H         3.692140        -1.267023        -2.077898
 H         1.869608        -1.163682         1.971144
