19
Iteration:  4830
 C        -0.044786         0.119235        -0.132133
 C         1.525971        -0.018503         0.016627
 C         2.173889         1.258522         0.441517
 C         3.319193         0.476925         1.165471
 C         4.055691        -0.479532         0.018245
 C         3.435691        -0.285761        -1.368002
 O         1.986566        -0.530703        -1.269019
 O         3.417369        -1.747105         0.483534
 C         2.487383        -0.817184         1.248537
 H        -0.126977         1.179903        -0.566794
 H        -0.316642        -0.756932        -0.688882
 H        -0.563604        -0.075388         0.807333
 H         2.526942         1.882935        -0.429414
 H         1.491115         1.860387         1.118679
 H         3.819915         0.794313         2.116963
 H         5.160285        -0.483895        -0.007656
 H         3.642422         0.632236        -1.817730
 H         3.967062        -1.170253        -1.883804
 H         1.963922        -1.390222         2.040269
