19
Iteration:  3140charge 0 multiplicity 1
 C         0.075738        -0.186077        -0.111420
 C         1.496878         0.056744         0.049663
 C         2.198870         1.370199         0.463729
 C         3.293654         0.467180         1.066539
 C         3.966820        -0.521787        -0.007463
 C         3.521943        -0.419911        -1.426983
 O         2.075657        -0.350170        -1.279377
 O         3.296457        -1.691016         0.641548
 C         2.403901        -0.739392         1.181681
 H        -0.542110        -0.372284         0.753977
 H        -0.461469         0.671273        -0.592914
 H        -0.063204        -1.075349        -0.627735
 H         2.611172         2.061802        -0.281759
 H         1.807997         2.016587         1.276441
 H         4.111811         0.861916         1.724842
 H         5.080249        -0.700766         0.116391
 H         3.931224         0.385370        -2.147027
 H         3.651038        -1.445268        -1.941692
 H         1.885976        -0.984283         2.144222
