19
Iteration:   145charge 0 multiplicity 1
 C        -0.037716        -0.106460        -0.019358
 C         1.498000         0.051644        -0.035225
 C         2.178835         1.341127         0.523130
 C         3.261076         0.450936         1.104919
 C         4.058138        -0.470729         0.017996
 C         3.484780        -0.469487        -1.376704
 O         2.039398        -0.363117        -1.386276
 O         3.461749        -1.676330         0.665635
 C         2.382693        -0.805365         1.075309
 H        -0.508918         0.445670         0.859904
 H        -0.365554         0.414550        -0.943919
 H        -0.305218        -1.077026         0.011252
 H         2.482719         1.934067        -0.268695
 H         1.656602         1.926729         1.174891
 H         3.822668         0.843408         1.905228
 H         5.130236        -0.461891        -0.003490
 H         3.893765         0.298090        -1.983799
 H         3.870447        -1.381792        -1.871656
 H         1.860639        -1.129854         1.973909
