19
Iteration:  3162charge 0 multiplicity 1
 C        -0.006403        -0.141820        -0.121659
 C         1.523666        -0.002099        -0.003110
 C         2.251145         1.299088         0.381975
 C         3.384011         0.494444         1.068026
 C         4.088609        -0.563359         0.059625
 C         3.455725        -0.354431        -1.270614
 O         2.002452        -0.381614        -1.285264
 O         3.341878        -1.684972         0.628041
 C         2.356771        -0.736798         1.101979
 H        -0.516980         0.145371         0.817034
 H        -0.476582         0.573118        -0.825197
 H        -0.403425        -1.072747        -0.259170
 H         2.321330         2.052813        -0.415157
 H         1.736110         1.779044         1.240183
 H         4.037346         0.820040         1.904375
 H         5.209663        -0.652635         0.002886
 H         3.823951         0.670567        -1.685150
 H         3.729272        -1.097330        -2.104702
 H         1.852413        -1.015553         2.051802
