19
Iteration:  1495
 C         0.034151        -0.188301         0.000627
 C         1.572245         0.001650         0.003294
 C         2.295250         1.353251         0.372419
 C         3.326210         0.419418         1.110208
 C         4.053156        -0.466861         0.035956
 C         3.555515        -0.397908        -1.422262
 O         2.049515        -0.392612        -1.325314
 O         3.197860        -1.693322         0.648532
 C         2.283173        -0.658524         1.135471
 H        -0.248134         0.064462         1.132325
 H        -0.529885         0.378951        -0.724331
 H        -0.068144        -1.316732        -0.134030
 H         2.613186         1.928136        -0.540443
 H         1.665111         1.870605         1.007755
 H         4.027515         0.611908         1.934833
 H         5.131253        -0.519044         0.182708
 H         3.825710         0.693733        -1.912074
 H         4.028621        -1.085052        -2.076905
 H         1.618315        -0.923875         1.935282
