19
Iteration:  2443charge 0 multiplicity 1
 C         0.059026        -0.000694         0.005330
 C         1.599257         0.023390        -0.107319
 C         2.223716         1.300185         0.395621
 C         3.310736         0.408682         1.042544
 C         4.009191        -0.439815         0.068445
 C         3.474108        -0.353235        -1.326017
 O         2.064737        -0.509429        -1.291101
 O         3.300694        -1.674656         0.615157
 C         2.322606        -0.766691         1.100104
 H        -0.187718         0.206144         1.138363
 H        -0.328965         0.746343        -0.627330
 H        -0.149285        -1.024976        -0.387285
 H         2.495167         2.041468        -0.356706
 H         1.453906         1.490746         1.202471
 H         3.964985         0.692690         1.936534
 H         5.109937        -0.525348         0.076444
 H         3.611618         0.678293        -1.718957
 H         3.850312        -1.304703        -1.837966
 H         1.812194        -1.039582         2.045515
