19
Iteration:  1089
 C         0.109778        -0.195310         0.043081
 C         1.591872         0.037614        -0.094990
 C         2.235697         1.392809         0.328772
 C         3.284805         0.431784         1.047950
 C         4.017402        -0.510662         0.116520
 C         3.520073        -0.341262        -1.245851
 O         2.044815        -0.395602        -1.368665
 O         3.234905        -1.717265         0.588844
 C         2.338022        -0.737591         1.094695
 H        -0.288010         0.127924         1.076955
 H        -0.473461         0.172443        -0.751832
 H        -0.122152        -1.262612         0.195747
 H         2.538325         2.315328        -0.331073
 H         1.567127         1.892784         1.077003
 H         3.922681         0.807470         1.937636
 H         5.130468        -0.573892         0.177591
 H         3.907566         0.569091        -1.725875
 H         3.883487        -1.169381        -1.880790
 H         1.746861        -0.923211         2.016329
