19
Iteration:  2929
 C         0.024130        -0.031841        -0.085045
 C         1.503790        -0.079258        -0.004859
 C         2.252805         1.319350         0.383547
 C         3.313282         0.458118         1.069085
 C         4.075257        -0.531287         0.056466
 C         3.404571        -0.249918        -1.334031
 O         2.041886        -0.454206        -1.258907
 O         3.359964        -1.741972         0.606146
 C         2.386576        -0.763192         1.108920
 H        -0.465641        -0.037180         0.841237
 H        -0.236344         0.953903        -0.554638
 H        -0.333600        -0.899992        -0.611630
 H         2.303993         1.946067        -0.541728
 H         1.700480         1.840369         1.167031
 H         3.843787         0.876725         1.931818
 H         5.196759        -0.574699         0.169181
 H         3.800295         0.684763        -1.575987
 H         3.848975        -1.055679        -1.964607
 H         1.850927        -0.987227         2.059196
