19
Iteration:  2347
 C         0.009942        -0.091655         0.029463
 C         1.531050         0.012731        -0.105656
 C         2.262682         1.307813         0.369310
 C         3.356878         0.439613         1.063963
 C         4.078867        -0.527615         0.072797
 C         3.472855        -0.317208        -1.331502
 O         2.040122        -0.449231        -1.296164
 O         3.285098        -1.633202         0.584198
 C         2.315481        -0.760397         1.130011
 H        -0.410977         0.454680         0.987604
 H        -0.426655         0.447086        -0.799136
 H        -0.148478        -1.209161         0.034650
 H         2.702125         1.921933        -0.394344
 H         1.634682         1.661055         1.138939
 H         3.914350         0.832223         1.851472
 H         5.204336        -0.690974         0.294608
 H         3.960761         0.617553        -1.659960
 H         3.739303        -1.219275        -1.985574
 H         1.754078        -1.174246         1.982653
