19
Iteration:  1435
 C        -0.008643         0.010645        -0.137201
 C         1.540035        -0.045109         0.052694
 C         2.195116         1.315685         0.429313
 C         3.246446         0.461063         1.049787
 C         3.998812        -0.490536        -0.008952
 C         3.482662        -0.455658        -1.410769
 O         2.101710        -0.382563        -1.265936
 O         3.382070        -1.648375         0.654576
 C         2.411273        -0.814777         1.202238
 H        -0.399104         0.614147         0.579296
 H        -0.276438         0.431166        -1.109233
 H        -0.509167        -0.924783        -0.029091
 H         2.396795         2.132857        -0.237893
 H         1.524470         1.758804         1.277545
 H         4.008932         0.695043         1.793154
 H         5.102484        -0.582714         0.100747
 H         3.766149         0.460218        -2.097738
 H         3.806378        -1.476175        -1.889956
 H         1.917185        -1.308337         2.078126
