19
Iteration:  3747charge 0 multiplicity 1
 C         0.027895        -0.185805        -0.078058
 C         1.558968        -0.036441        -0.014042
 C         2.245303         1.362698         0.462593
 C         3.406592         0.470308         1.135627
 C         4.007727        -0.519556         0.002713
 C         3.467697        -0.443507        -1.362189
 O         1.987896        -0.346317        -1.356301
 O         3.281351        -1.633005         0.658928
 C         2.406575        -0.706941         1.132377
 H        -0.375840         0.360501         0.772822
 H        -0.374109         0.242066        -0.983868
 H        -0.311723        -1.222690         0.091604
 H         2.600167         1.900901        -0.375107
 H         1.678692         1.855422         1.165700
 H         4.162879         0.968226         1.816745
 H         5.081066        -0.773999         0.105822
 H         3.845436         0.424059        -2.060199
 H         3.633903        -1.332126        -1.914368
 H         1.763300        -0.958171         1.996760
