19
Iteration:  3686charge 0 multiplicity 1
 C        -0.027187        -0.106430         0.019930
 C         1.537916        -0.006772         0.007619
 C         2.221378         1.318807         0.292346
 C         3.298293         0.490864         1.067323
 C         4.026106        -0.586566         0.097507
 C         3.538120        -0.321736        -1.377848
 O         2.034044        -0.407937        -1.415632
 O         3.293827        -1.698966         0.644225
 C         2.429498        -0.754156         1.231801
 H        -0.445094        -0.485216         1.047096
 H        -0.583047         0.936479        -0.142468
 H        -0.312810        -0.746599        -0.799892
 H         2.493809         2.085844        -0.531725
 H         1.636239         2.007526         1.113978
 H         4.170071         0.881779         1.617207
 H         5.138490        -0.686728         0.196538
 H         3.870247         0.589734        -1.727541
 H         3.936840        -1.248635        -1.970406
 H         2.019954        -0.956087         2.277417
