19
Iteration:  2684
 C         0.130463        -0.218029        -0.006844
 C         1.548860         0.014822        -0.043976
 C         2.251983         1.312576         0.355493
 C         3.373845         0.440807         1.110836
 C         4.009432        -0.522085         0.016560
 C         3.492003        -0.330986        -1.330221
 O         2.052283        -0.272139        -1.340698
 O         3.207701        -1.773088         0.598266
 C         2.312705        -0.683619         1.177002
 H        -0.258004         0.186287         1.005421
 H        -0.409786         0.173939        -0.747798
 H        -0.235751        -1.247395        -0.146210
 H         2.561775         2.162523        -0.211851
 H         1.663575         1.817799         1.170636
 H         4.073405         0.655225         1.930989
 H         5.044414        -0.673199         0.064279
 H         3.848749         0.658465        -1.821923
 H         3.824982        -1.167863        -1.970849
 H         1.754935        -0.922115         2.060481
