19
Iteration:  4702
 C         0.013220         0.014240        -0.117821
 C         1.544186        -0.062202        -0.034806
 C         2.190478         1.282451         0.494865
 C         3.317454         0.457705         1.141437
 C         4.060140        -0.538780        -0.042654
 C         3.408601        -0.266494        -1.404110
 O         2.034771        -0.455615        -1.264394
 O         3.369390        -1.685007         0.623523
 C         2.412870        -0.837643         1.160290
 H        -0.246687         0.757567        -0.829091
 H        -0.351554        -0.990226        -0.458074
 H        -0.244402         0.479358         0.940741
 H         2.407020         2.089194        -0.228997
 H         1.635280         1.800228         1.268415
 H         4.029880         0.813828         1.969933
 H         5.130609        -0.875878        -0.128828
 H         3.726962         0.783416        -1.703962
 H         3.681665        -0.936319        -2.229827
 H         1.864572        -1.189736         2.093699
