19
Iteration:  1017charge 0 multiplicity 1
 C         0.009414        -0.027285        -0.141727
 C         1.500751        -0.012377         0.025404
 C         2.180535         1.365193         0.520366
 C         3.311779         0.454102         0.994167
 C         4.088297        -0.515913         0.003718
 C         3.455012        -0.411070        -1.386011
 O         2.064468        -0.550103        -1.300576
 O         3.392501        -1.645901         0.670465
 C         2.361827        -0.703985         1.182623
 H        -0.678289        -0.070811         0.737801
 H        -0.135961         0.867945        -0.747909
 H        -0.330736        -0.881995        -0.727525
 H         2.378186         2.219405        -0.109870
 H         1.602914         1.841975         1.308399
 H         3.945209         0.710217         1.879086
 H         5.154918        -0.571702         0.174834
 H         3.703791         0.564408        -2.002717
 H         3.787169        -1.141146        -2.141219
 H         1.836617        -1.112099         2.136359
