19
Iteration:  4603
 C         0.028823        -0.300852        -0.026326
 C         1.494073         0.111228         0.110550
 C         2.216994         1.385200         0.489673
 C         3.369987         0.451261         0.968987
 C         4.020208        -0.634078        -0.006188
 C         3.525128        -0.373089        -1.387560
 O         2.075596        -0.247348        -1.336021
 O         3.189493        -1.697899         0.558187
 C         2.426846        -0.719750         1.198725
 H        -0.305183         0.295151        -0.874235
 H        -0.005915        -1.363281        -0.335168
 H        -0.497894        -0.058882         0.995248
 H         2.328377         2.072317        -0.358542
 H         1.718206         1.844755         1.319443
 H         3.955981         0.844214         1.807184
 H         5.117469        -0.733823         0.039664
 H         4.009345         0.518489        -1.766184
 H         3.821826        -1.193959        -1.963708
 H         2.088715        -1.053408         2.209081
