19
Iteration:  4573charge 0 multiplicity 1
 C         0.101611        -0.193822        -0.053793
 C         1.567597         0.054287         0.023069
 C         2.289871         1.316756         0.498680
 C         3.344292         0.443257         1.086496
 C         4.014294        -0.555331         0.012795
 C         3.418181        -0.333781        -1.381359
 O         1.995373        -0.373842        -1.297765
 O         3.284371        -1.649625         0.567820
 C         2.382881        -0.736717         1.090166
 H        -0.153583         0.062195        -1.068243
 H        -0.262630        -1.184269         0.406480
 H        -0.529115         0.569518         0.577012
 H         2.511032         2.098176        -0.290167
 H         1.580775         1.639149         1.316181
 H         3.853122         0.675187         2.105973
 H         5.122782        -0.619690        -0.021032
 H         3.725829         0.633152        -1.904264
 H         3.756777        -1.210054        -1.986904
 H         1.956346        -1.140644         2.033258
