19
Iteration:  1346charge 0 multiplicity 1
 C         0.078579        -0.170706        -0.048368
 C         1.521625         0.015384        -0.021849
 C         2.306606         1.316077         0.384601
 C         3.359101         0.495673         1.012376
 C         4.012509        -0.568134         0.066001
 C         3.485871        -0.279166        -1.353542
 O         2.098124        -0.523125        -1.261812
 O         3.186223        -1.667971         0.599189
 C         2.328800        -0.644096         1.166997
 H        -0.165910        -0.467359         0.891218
 H        -0.409419         0.721559        -0.326303
 H        -0.221298        -0.989510        -0.659625
 H         2.512415         1.994383        -0.413717
 H         1.812662         1.938517         1.217163
 H         4.058142         0.941933         1.653599
 H         5.016618        -0.750152         0.361134
 H         3.775119         0.799522        -1.712450
 H         3.757406        -1.076831        -2.092412
 H         1.658029        -0.958797         2.013244
