19
Iteration:  2694
 C         0.053551        -0.172187        -0.011733
 C         1.578563         0.020792         0.018889
 C         2.266446         1.313597         0.416451
 C         3.342583         0.416322         1.035271
 C         4.082033        -0.571959         0.051472
 C         3.516056        -0.294895        -1.387137
 O         2.089031        -0.345904        -1.281278
 O         3.182459        -1.691558         0.581018
 C         2.299204        -0.710391         1.120856
 H        -0.327858         0.023992         1.028556
 H        -0.494667         0.441449        -0.666700
 H         0.031302        -1.242030        -0.059891
 H         2.439986         1.950854        -0.438299
 H         1.681297         1.824992         1.207926
 H         3.669875         0.872544         1.960164
 H         5.108163        -0.664880         0.095627
 H         3.852026         0.658973        -1.976198
 H         3.772197        -1.122066        -2.026655
 H         1.725167        -1.077930         1.953687
