19
Iteration:  1085
 C         0.078855        -0.199399         0.064529
 C         1.562296         0.039153        -0.095037
 C         2.235462         1.407410         0.340290
 C         3.283237         0.447523         1.058632
 C         4.042366        -0.545381         0.118712
 C         3.478069        -0.361720        -1.262230
 O         2.088144        -0.366521        -1.354898
 O         3.277053        -1.728453         0.594983
 C         2.305140        -0.714653         1.088055
 H        -0.288766         0.161578         0.939151
 H        -0.583947         0.205126        -0.785258
 H        -0.066488        -1.299612         0.098553
 H         2.537973         2.173606        -0.273224
 H         1.545917         1.933973         1.054326
 H         3.856996         0.780135         1.834917
 H         5.181579        -0.526192         0.166085
 H         3.989778         0.477392        -1.883646
 H         3.836167        -1.186408        -1.906351
 H         1.784157        -0.994654         1.959798
