19
Iteration:  1594
 C        -0.001875        -0.079517        -0.030466
 C         1.531413        -0.013141        -0.032319
 C         2.226641         1.296762         0.355421
 C         3.332308         0.457485         1.080439
 C         4.033564        -0.515439         0.066233
 C         3.515013        -0.324771        -1.349287
 O         2.114726        -0.538164        -1.222406
 O         3.314467        -1.612490         0.539723
 C         2.263161        -0.748414         1.174317
 H        -0.331782         0.491469         0.911469
 H        -0.343161         0.579280        -0.774376
 H        -0.325128        -1.086512        -0.291536
 H         2.574853         1.787491        -0.602877
 H         1.803077         2.017473         1.010340
 H         3.969244         0.729525         1.896073
 H         5.111515        -0.600915         0.172080
 H         3.803991         0.732805        -1.558395
 H         3.831979        -0.878204        -2.183536
 H         1.698195        -1.164009         1.978443
