19
Iteration:  4897charge 0 multiplicity 1
 C         0.053037        -0.239354         0.008138
 C         1.553642        -0.021269         0.059475
 C         2.286237         1.279607         0.410025
 C         3.356731         0.394665         1.044309
 C         3.973249        -0.557987         0.009502
 C         3.527487        -0.275879        -1.368003
 O         2.061749        -0.219769        -1.331616
 O         3.263050        -1.715310         0.615420
 C         2.307018        -0.706080         1.119462
 H        -0.520281         0.250500        -0.806734
 H         0.003229        -1.317688         0.050400
 H        -0.445276         0.240061         0.950490
 H         2.394311         1.955363        -0.507660
 H         1.755061         1.953959         1.160447
 H         4.044792         0.921818         1.808726
 H         5.064959        -0.786685         0.084422
 H         4.068527         0.554109        -1.744453
 H         3.579559        -1.188714        -2.090831
 H         1.632052        -1.021806         1.963584
