19
Iteration:   788
 C         0.069491        -0.207743        -0.249986
 C         1.528437         0.019632        -0.020445
 C         2.230465         1.286294         0.488597
 C         3.432992         0.450464         1.005456
 C         4.012794        -0.529205         0.048232
 C         3.384394        -0.406842        -1.406019
 O         2.014779        -0.379541        -1.300443
 O         3.284829        -1.639429         0.694605
 C         2.424690        -0.641580         1.316658
 H        -0.615088         0.084613         0.591641
 H        -0.096273         0.291013        -1.248125
 H        -0.294647        -1.284345        -0.277828
 H         2.430375         2.165573        -0.150111
 H         1.577770         1.703350         1.356673
 H         4.263279         0.848046         1.701750
 H         5.212468        -0.553095         0.081745
 H         3.734351         0.636022        -1.706177
 H         3.531405        -1.143452        -2.208988
 H         1.924986        -1.014809         2.172578
