19
Iteration:  3345charge 0 multiplicity 1
 C         0.002991         0.028960        -0.059176
 C         1.569188        -0.051379        -0.079615
 C         2.188966         1.294970         0.447448
 C         3.302895         0.404219         1.007973
 C         4.105760        -0.453295         0.042039
 C         3.452053        -0.320524        -1.362692
 O         2.003989        -0.512315        -1.272109
 O         3.386851        -1.700427         0.713850
 C         2.360450        -0.799993         1.083536
 H        -0.275739         0.352404         0.931296
 H        -0.293199         0.834783        -0.868421
 H        -0.443978        -0.932774        -0.393791
 H         2.568641         2.185317        -0.089451
 H         1.624647         1.711569         1.284226
 H         3.807336         0.799816         1.965626
 H         5.164500        -0.550591        -0.085884
 H         3.383250         0.736081        -1.859033
 H         3.901659        -0.846158        -2.194671
 H         1.986388        -1.053919         2.095166
