19
Iteration:  2239charge 0 multiplicity 1
 C         0.042995        -0.190413        -0.018155
 C         1.566393        -0.029330        -0.075868
 C         2.338652         1.322548         0.366446
 C         3.351120         0.432599         1.068401
 C         3.966675        -0.520137         0.065995
 C         3.493856        -0.358429        -1.311394
 O         1.959358        -0.319032        -1.343617
 O         3.274357        -1.707799         0.665504
 C         2.425215        -0.712974         1.165015
 H        -0.468584        -0.319931         1.008301
 H        -0.335895         0.678514        -0.515583
 H        -0.385790        -0.881704        -0.781619
 H         2.624583         2.124138        -0.505754
 H         1.677385         2.045143         0.918735
 H         3.888382         0.727220         1.919578
 H         5.096848        -0.764899         0.140139
 H         3.802816         0.679567        -1.669729
 H         3.703606        -1.161789        -2.073261
 H         1.900017        -0.944968         2.090785
