19
Iteration:   274
 C        -0.034450        -0.078908        -0.077208
 C         1.503720        -0.066863        -0.036830
 C         2.187941         1.348727         0.505813
 C         3.355680         0.487945         1.071189
 C         4.037952        -0.504271         0.077859
 C         3.484434        -0.424705        -1.365475
 O         1.980544        -0.375591        -1.426205
 O         3.432306        -1.676007         0.620211
 C         2.416704        -0.791910         1.205242
 H        -0.436119         0.659845         0.652555
 H        -0.273352         0.354733        -1.056600
 H        -0.538608        -0.999704        -0.081357
 H         2.457649         2.160165        -0.129381
 H         1.608961         1.753310         1.516281
 H         4.046154         0.806522         1.757916
 H         5.156531        -0.485393         0.149622
 H         3.845323         0.439455        -1.915427
 H         3.740471        -1.283248        -1.775455
 H         1.828448        -1.142884         2.011622
