19
Iteration:   458charge 0 multiplicity 1
 C         0.025689        -0.158164        -0.006997
 C         1.515066         0.019644        -0.022863
 C         2.243614         1.341002         0.385947
 C         3.305293         0.445498         1.086258
 C         4.064527        -0.578466         0.095407
 C         3.486224        -0.241094        -1.354154
 O         2.069322        -0.391682        -1.335672
 O         3.298607        -1.702305         0.603708
 C         2.353310        -0.771650         1.118948
 H        -0.388282         0.305007         0.953329
 H        -0.515552         0.274471        -0.868015
 H        -0.147274        -1.249042         0.076043
 H         2.569443         1.949741        -0.453744
 H         1.670388         1.990751         1.033489
 H         3.851812         0.765823         1.910785
 H         5.121211        -0.751005         0.219930
 H         3.749133         0.730949        -1.809616
 H         3.887997        -1.019949        -2.146752
 H         1.852229        -1.094866         1.969205
