19
Iteration:  3650charge 0 multiplicity 1
 C         0.045867         0.066514        -0.030716
 C         1.517822        -0.027744        -0.068848
 C         2.280461         1.387600         0.446229
 C         3.278545         0.449393         1.119677
 C         4.064485        -0.454987         0.075127
 C         3.453542        -0.372904        -1.360878
 O         1.933844        -0.618629        -1.328110
 O         3.454336        -1.637351         0.620520
 C         2.341007        -0.785405         1.107993
 H        -0.483979        -0.034586         0.932578
 H        -0.281094         0.989545        -0.604226
 H        -0.273351        -0.786074        -0.647925
 H         2.538384         2.066353        -0.381125
 H         1.410084         1.773210         1.040430
 H         3.887885         0.623257         2.044610
 H         5.175619        -0.526368         0.147828
 H         3.686078         0.518646        -1.859330
 H         3.868874        -1.182717        -1.934052
 H         1.944045        -1.419108         1.925353
