19
Iteration:  1639charge 0 multiplicity 1
 C         0.033618        -0.166186        -0.030398
 C         1.559734         0.093158        -0.000715
 C         2.192506         1.385209         0.408994
 C         3.288245         0.380509         1.033430
 C         4.020143        -0.590274         0.026828
 C         3.485358        -0.438058        -1.311162
 O         2.050174        -0.309500        -1.359388
 O         3.340844        -1.650158         0.748388
 C         2.380943        -0.736232         1.026739
 H        -0.518123         0.495998         0.755094
 H        -0.403570         0.097118        -0.981427
 H        -0.021784        -1.252814         0.050054
 H         2.586288         2.071000        -0.383873
 H         1.515515         1.820934         1.129879
 H         3.923442         0.654375         1.836532
 H         5.073716        -0.654971         0.161348
 H         3.960699         0.386305        -1.775846
 H         3.746348        -1.218884        -1.929275
 H         1.817414        -1.096480         1.875520
