19
Iteration:  3798
 C        -0.009911         0.042202        -0.037807
 C         1.536501        -0.050088        -0.054392
 C         2.301818         1.258056         0.378643
 C         3.347167         0.427551         1.136889
 C         4.064805        -0.448830         0.034635
 C         3.422934        -0.261491        -1.358655
 O         2.037421        -0.576012        -1.316646
 O         3.363331        -1.676268         0.625947
 C         2.339236        -0.761044         1.134186
 H        -0.377895         0.999125         0.254607
 H        -0.410178        -0.208496        -0.982916
 H        -0.454076        -0.730092         0.768883
 H         2.536453         2.019454        -0.439207
 H         1.622727         1.643497         1.225521
 H         3.782690         0.782201         2.046369
 H         5.140715        -0.540507        -0.045080
 H         3.497356         0.667037        -1.806990
 H         3.790044        -1.023740        -2.055423
 H         1.897071        -0.976428         2.086640
