19
Iteration:  3153charge 0 multiplicity 1
 C        -0.012463        -0.146761        -0.101418
 C         1.538693         0.014089         0.047514
 C         2.265470         1.366163         0.426507
 C         3.355267         0.445372         0.972710
 C         4.093623        -0.551081         0.084678
 C         3.481024        -0.401288        -1.365741
 O         1.986754        -0.355337        -1.307910
 O         3.327544        -1.665345         0.611261
 C         2.338912        -0.731800         1.207517
 H        -0.526968        -0.062675         0.902525
 H        -0.297337         0.499996        -0.833728
 H        -0.094309        -1.115562        -0.606243
 H         2.319195         2.046531        -0.456901
 H         1.649253         1.824083         1.281570
 H         3.809774         0.723671         1.877708
 H         5.273905        -0.577382         0.227018
 H         3.835375         0.535252        -1.768752
 H         3.869303        -1.225576        -2.016313
 H         1.868181        -1.170359         2.083991
