19
Iteration:   762charge 0 multiplicity 1
 C         0.013000        -0.250158        -0.068751
 C         1.521818         0.007815         0.012560
 C         2.233036         1.416290         0.408005
 C         3.335464         0.491490         0.995445
 C         4.029421        -0.595896         0.074530
 C         3.510343        -0.336721        -1.362674
 O         2.091110        -0.386410        -1.244028
 O         3.273504        -1.705162         0.621080
 C         2.365499        -0.658023         1.126201
 H        -0.598570         0.127683         0.787883
 H        -0.244378         0.265950        -0.969261
 H        -0.292218        -1.270524        -0.173869
 H         2.537342         2.156733        -0.456930
 H         1.683065         2.003701         1.152518
 H         3.937022         0.775905         1.830171
 H         5.077300        -0.761394         0.137743
 H         3.896930         0.499701        -1.795255
 H         3.654751        -1.130978        -2.061549
 H         1.875413        -1.018043         2.099657
