19
Iteration:  1189
 C         0.025481        -0.089580        -0.020457
 C         1.536462         0.052409        -0.077254
 C         2.144335         1.387789         0.463038
 C         3.316958         0.500131         1.060908
 C         4.056245        -0.541763         0.045169
 C         3.495792        -0.517400        -1.344254
 O         2.048534        -0.364631        -1.394007
 O         3.401802        -1.675772         0.700766
 C         2.358934        -0.764045         1.102814
 H        -0.489959        -0.138815         1.017615
 H        -0.354082         0.698465        -0.563488
 H        -0.306472        -0.945315        -0.585110
 H         2.311804         2.347231        -0.201528
 H         1.542955         1.619254         1.332564
 H         3.960921         0.873571         1.956666
 H         5.129349        -0.643382        -0.007003
 H         3.873748         0.352640        -1.919437
 H         3.735427        -1.501300        -1.714778
 H         1.648533        -1.262733         1.819379
