19
Iteration:  3833
 C        -0.016738        -0.121369        -0.101308
 C         1.513677         0.017624         0.053417
 C         2.233866         1.412735         0.437244
 C         3.373811         0.464981         1.093740
 C         4.084748        -0.536259         0.015354
 C         3.441200        -0.359594        -1.392857
 O         2.044216        -0.397547        -1.246955
 O         3.312400        -1.767555         0.583271
 C         2.392744        -0.728625         1.112157
 H        -0.518056         0.824653        -0.251193
 H        -0.215993        -0.774571        -0.942277
 H        -0.466408        -0.689667         0.875399
 H         2.282462         2.163258        -0.404088
 H         1.654773         1.960299         1.224502
 H         3.874182         0.899181         2.008020
 H         5.137680        -0.855370        -0.019654
 H         3.922495         0.492150        -1.798044
 H         3.797994        -1.155634        -1.986868
 H         2.009010        -0.938474         2.105491
