19
Iteration:  2880
 C         0.127422        -0.010091        -0.102155
 C         1.550789        -0.126763        -0.048101
 C         2.149547         1.313745         0.472773
 C         3.337309         0.443071         1.133938
 C         4.023917        -0.441570         0.055362
 C         3.466631        -0.416574        -1.359073
 O         1.966870        -0.395862        -1.279091
 O         3.357971        -1.671973         0.598277
 C         2.367812        -0.775096         1.080496
 H        -0.449183         0.305829         0.835436
 H        -0.075025         0.788460        -0.826686
 H        -0.294032        -1.022544        -0.324039
 H         2.442986         2.041863        -0.282629
 H         1.608810         1.831773         1.304233
 H         4.082040         0.794657         1.865160
 H         5.089254        -0.489835         0.015015
 H         3.819592         0.487668        -1.815412
 H         3.898086        -1.277219        -1.842079
 H         1.858566        -1.139180         1.969590
