19
Iteration:  1832charge 0 multiplicity 1
 C        -0.021762        -0.193604        -0.038250
 C         1.534572         0.025811        -0.051889
 C         2.258193         1.426009         0.391667
 C         3.389163         0.484019         1.097478
 C         3.990701        -0.622087         0.116687
 C         3.499617        -0.368719        -1.319937
 O         2.078515        -0.419344        -1.344837
 O         3.313987        -1.671883         0.608733
 C         2.336109        -0.695176         1.111411
 H        -0.505870         0.275074         0.935219
 H        -0.580839         0.350806        -0.879626
 H        -0.251055        -1.283455        -0.045188
 H         2.541335         1.964291        -0.493846
 H         1.692574         2.063329         1.082470
 H         4.023957         0.855813         1.899105
 H         5.144632        -0.702622         0.072134
 H         3.640992         0.633813        -1.684472
 H         3.853712        -1.225975        -1.990081
 H         1.786576        -1.066851         1.999573
