19
Iteration:  3007charge 0 multiplicity 1
 C         0.043969        -0.140502        -0.090735
 C         1.542822        -0.026340        -0.031358
 C         2.253219         1.292069         0.432456
 C         3.344554         0.478193         0.985377
 C         3.952642        -0.525953         0.010503
 C         3.477116        -0.322269        -1.362144
 O         2.031344        -0.265740        -1.272125
 O         3.323623        -1.719997         0.645077
 C         2.395159        -0.791318         1.209390
 H        -0.310148         0.543885         0.579064
 H        -0.414975        -0.002355        -1.154310
 H        -0.339850        -1.112217         0.075402
 H         2.541688         2.167983        -0.220862
 H         1.572823         1.520029         1.286227
 H         3.957083         0.840949         1.870546
 H         5.100959        -0.710609         0.071136
 H         3.913038         0.472414        -1.819662
 H         3.840736        -1.301528        -1.818304
 H         1.807734        -1.128077         2.126211
