19
Iteration:  3523
 C        -0.066301        -0.024716        -0.054704
 C         1.515431        -0.081085        -0.001138
 C         2.210875         1.255942         0.478112
 C         3.354073         0.454345         1.005609
 C         4.051945        -0.504773         0.023517
 C         3.493463        -0.325833        -1.390983
 O         2.056559        -0.433519        -1.325818
 O         3.367211        -1.670073         0.684647
 C         2.392815        -0.732259         1.113251
 H        -0.503241        -0.001100         0.994387
 H        -0.439895         0.902292        -0.624986
 H        -0.394794        -0.806959        -0.644538
 H         2.501527         1.935157        -0.314633
 H         1.712327         1.871042         1.238203
 H         3.934290         0.723481         1.881835
 H         5.066578        -0.839334         0.006492
 H         3.743399         0.729494        -1.580154
 H         3.759581        -1.218936        -2.001162
 H         1.878529        -1.060290         2.023796
