19
Iteration:  3008charge 0 multiplicity 1
 C         0.046883        -0.138668        -0.088995
 C         1.537119        -0.013062        -0.031975
 C         2.252041         1.293878         0.436590
 C         3.354924         0.462940         0.985354
 C         3.954831        -0.520589         0.016800
 C         3.466825        -0.321647        -1.349366
 O         2.031708        -0.278895        -1.275522
 O         3.324078        -1.721802         0.644092
 C         2.400868        -0.788493         1.200146
 H        -0.332455         0.571696         0.578585
 H        -0.393495        -0.021688        -1.158309
 H        -0.378561        -1.080789         0.038350
 H         2.497247         2.175134        -0.239212
 H         1.525253         1.508821         1.288446
 H         3.979546         0.855963         1.858470
 H         5.143163        -0.669546         0.085488
 H         3.929791         0.491255        -1.844024
 H         3.829907        -1.297462        -1.839425
 H         1.807891        -1.130323         2.117138
