19
Iteration:  2732charge 0 multiplicity 1
 C         0.061418         0.008979        -0.072261
 C         1.528696        -0.016293        -0.060058
 C         2.277122         1.232525         0.435588
 C         3.308884         0.427397         1.109131
 C         4.068655        -0.445130         0.082429
 C         3.369987        -0.261975        -1.382860
 O         1.996778        -0.474233        -1.297223
 O         3.369183        -1.708761         0.637550
 C         2.409718        -0.805639         1.115470
 H        -0.415190         0.036369         0.887619
 H        -0.371888         0.806969        -0.747332
 H        -0.372514        -0.816162        -0.683210
 H         2.371064         2.054124        -0.353838
 H         1.724325         1.770881         1.215377
 H         3.879093         0.739819         1.992321
 H         5.187721        -0.768573         0.113808
 H         3.724135         0.665522        -1.815196
 H         3.753400        -1.124654        -2.032506
 H         1.835690        -1.039734         2.055063
