19
Iteration:  2485charge 0 multiplicity 1
 C         0.081392        -0.088487        -0.089585
 C         1.503732         0.007154        -0.000927
 C         2.244863         1.283648         0.338382
 C         3.330277         0.424752         1.059819
 C         4.045435        -0.519159         0.051517
 C         3.450256        -0.294168        -1.287584
 O         2.028112        -0.381562        -1.285648
 O         3.316684        -1.742337         0.609755
 C         2.364437        -0.742193         1.178546
 H        -0.506447         0.504476         0.640270
 H        -0.315349         0.375578        -1.008310
 H        -0.219360        -1.088832         0.160827
 H         2.682369         1.837741        -0.538100
 H         1.729487         1.813212         1.211262
 H         4.005458         0.852130         1.911293
 H         5.110789        -0.523916         0.012124
 H         3.775739         0.614655        -1.798678
 H         3.729782        -1.104783        -1.981647
 H         1.708057        -1.079662         2.009713
