19
Iteration:  4123
 C         0.008797        -0.149138        -0.002126
 C         1.540212        -0.013413        -0.031371
 C         2.283583         1.388719         0.462616
 C         3.305314         0.399060         1.100919
 C         3.962815        -0.519003         0.056060
 C         3.452444        -0.312295        -1.443073
 O         2.031127        -0.331706        -1.388234
 O         3.354478        -1.759112         0.657743
 C         2.434855        -0.784182         1.138959
 H        -0.398633        -0.007703        -0.998086
 H        -0.304362        -1.091175         0.353203
 H        -0.431984         0.643990         0.647122
 H         2.417954         2.051333        -0.337238
 H         1.626611         1.821883         1.196228
 H         3.942098         0.747201         1.891589
 H         5.010196        -0.553690         0.212477
 H         3.796615         0.770357        -1.691205
 H         3.877219        -1.023028        -2.215290
 H         1.902767        -0.947272         2.047491
