19
Iteration:  1600
 C         0.006725        -0.083752         0.027577
 C         1.504004         0.003422        -0.065408
 C         2.257842         1.266701         0.353777
 C         3.299180         0.435264         1.111194
 C         4.019434        -0.509491         0.080189
 C         3.520280        -0.316586        -1.353256
 O         2.125467        -0.520831        -1.298887
 O         3.257108        -1.615834         0.563585
 C         2.345771        -0.725073         1.180020
 H        -0.398089         0.406963         0.844385
 H        -0.334690         0.536089        -0.917222
 H        -0.393193        -1.121236        -0.109301
 H         2.493955         1.815853        -0.589615
 H         1.643866         2.059311         0.922613
 H         4.126396         0.645734         1.879628
 H         5.156339        -0.508940         0.199142
 H         3.755121         0.804767        -1.573353
 H         4.044553        -1.014010        -2.158929
 H         1.806817        -1.208646         2.064366
