19
Iteration:  2213
 C         0.048321        -0.089400         0.072713
 C         1.550638         0.063090        -0.046206
 C         2.255374         1.355509         0.380779
 C         3.314100         0.384808         1.047071
 C         4.019697        -0.557993         0.055586
 C         3.551851        -0.302404        -1.383049
 O         2.045514        -0.463893        -1.314243
 O         3.312437        -1.684289         0.665239
 C         2.319404        -0.725480         1.069721
 H        -0.388247        -0.176743         1.149740
 H        -0.560535         0.724918        -0.462988
 H        -0.225901        -0.956004        -0.529456
 H         2.504511         2.019659        -0.467106
 H         1.609288         1.946255         1.040747
 H         4.009214         0.752710         1.845508
 H         5.062804        -0.781173         0.256107
 H         3.672132         0.715695        -1.698964
 H         3.793558        -1.147003        -2.042896
 H         1.550247        -1.186512         1.739386
