19
Iteration:  1501
 C         0.004101        -0.203127         0.036058
 C         1.549083         0.023585        -0.029635
 C         2.281284         1.367765         0.353000
 C         3.349892         0.429374         1.083879
 C         4.062239        -0.485362         0.075972
 C         3.546715        -0.409213        -1.414479
 O         2.060247        -0.363984        -1.324147
 O         3.212184        -1.663375         0.638115
 C         2.338431        -0.727444         1.133160
 H        -0.367666         0.014288         0.969500
 H        -0.574532         0.451374        -0.663272
 H        -0.196418        -1.209925        -0.274917
 H         2.620999         2.098505        -0.402120
 H         1.576244         1.914426         1.107135
 H         3.878394         0.854295         1.976965
 H         5.173596        -0.645835         0.221358
 H         3.911856         0.456347        -1.879677
 H         3.908041        -1.326608        -2.048177
 H         1.591787        -1.033427         1.918442
