19
Iteration:  2966charge 0 multiplicity 1
 C         0.050276        -0.209262        -0.016034
 C         1.545836         0.033756        -0.094804
 C         2.297066         1.396010         0.445087
 C         3.324683         0.436658         1.056596
 C         4.014155        -0.548639         0.108112
 C         3.504086        -0.371766        -1.291543
 O         2.042504        -0.342943        -1.303042
 O         3.265634        -1.706444         0.582708
 C         2.327692        -0.705635         1.052438
 H        -0.273807        -0.134857         1.043401
 H        -0.681908         0.249387        -0.753374
 H        -0.025570        -1.278539        -0.185176
 H         2.481045         2.263787        -0.212460
 H         1.883967         1.832465         1.408223
 H         3.907992         0.889857         1.883118
 H         5.157240        -0.680664         0.010062
 H         3.849676         0.533363        -1.944273
 H         3.611390        -1.153944        -2.042627
 H         1.855190        -1.021319         2.001887
