19
Iteration:  1658charge 0 multiplicity 1
 C        -0.022388        -0.193664        -0.170299
 C         1.480744        -0.000190        -0.041701
 C         2.275196         1.355347         0.491714
 C         3.373833         0.493020         1.072892
 C         4.030995        -0.535589         0.065149
 C         3.478461        -0.480516        -1.401499
 O         2.044330        -0.270855        -1.334986
 O         3.352903        -1.725551         0.679951
 C         2.357434        -0.672913         1.228608
 H        -0.480567         0.291109         0.772507
 H        -0.430592         0.320809        -0.985279
 H        -0.372361        -1.249694        -0.271747
 H         2.387940         2.055213        -0.490878
 H         1.775016         1.848075         1.340299
 H         4.023248         0.966410         1.842190
 H         5.173196        -0.585780         0.086411
 H         3.802364         0.314618        -2.127566
 H         3.681419        -1.511106        -1.930821
 H         1.858035        -1.009085         2.115772
