19
Iteration:   683charge 0 multiplicity 1
 C        -0.042355        -0.055433        -0.218152
 C         1.508457        -0.070887         0.034408
 C         2.218624         1.362766         0.452681
 C         3.356182         0.495702         1.050342
 C         4.072649        -0.474458         0.066071
 C         3.456188        -0.354704        -1.353276
 O         2.010802        -0.481324        -1.221294
 O         3.414123        -1.745814         0.601854
 C         2.386870        -0.717875         1.175801
 H        -0.582569         0.141970         0.684717
 H        -0.172180         0.844213        -0.847969
 H        -0.407157        -0.951396        -0.738466
 H         2.337566         2.130314        -0.402223
 H         1.660300         1.729078         1.314803
 H         3.991001         0.851204         1.854452
 H         5.142623        -0.536214         0.055526
 H         3.625225         0.590999        -1.749330
 H         3.709733        -1.188651        -2.074785
 H         1.884034        -1.125398         2.129919
