19
Iteration:    83
 C         0.023905        -0.203172        -0.056127
 C         1.546811         0.050276         0.015277
 C         2.262538         1.370107         0.369635
 C         3.329552         0.444093         0.976528
 C         4.024044        -0.530314         0.018039
 C         3.474469        -0.269528        -1.320920
 O         2.086766        -0.441347        -1.194016
 O         3.302083        -1.702019         0.591878
 C         2.325266        -0.725394         1.165238
 H        -0.596162        -0.057079         0.863727
 H        -0.438831         0.516571        -0.784604
 H        -0.220931        -1.286622        -0.463236
 H         2.412079         2.228908        -0.489502
 H         1.671236         1.772707         1.268622
 H         3.970963         0.849675         1.813671
 H         5.105204        -0.742666        -0.048569
 H         3.779094         0.763204        -1.769738
 H         3.837282        -1.119194        -2.044936
 H         1.884147        -1.184742         2.085643
