19
Iteration:  1922charge 0 multiplicity 1
 C         0.089850        -0.102015        -0.172606
 C         1.544900        -0.009560         0.067066
 C         2.218902         1.343460         0.507298
 C         3.310758         0.462802         1.048843
 C         4.050368        -0.533557         0.022592
 C         3.395902        -0.426311        -1.408416
 O         1.995841        -0.402750        -1.327565
 O         3.319962        -1.651382         0.657734
 C         2.414392        -0.732068         1.208969
 H        -0.674090         0.048315         0.739968
 H        -0.123862         0.651659        -0.904005
 H        -0.067957        -1.094686        -0.643985
 H         2.484393         2.055083        -0.312116
 H         1.637598         1.746893         1.262092
 H         4.002820         0.893372         1.765436
 H         5.184848        -0.780961        -0.014563
 H         3.823342         0.564361        -1.731007
 H         3.916777        -1.211781        -2.041702
 H         1.921108        -0.959316         2.121469
