19
Iteration:   544
 C         0.016593        -0.030583        -0.270047
 C         1.518563        -0.062167         0.099141
 C         2.193025         1.293695         0.489140
 C         3.369709         0.469679         1.122879
 C         4.036187        -0.557194        -0.096413
 C         3.462949        -0.317953        -1.426141
 O         1.987890        -0.455833        -1.228842
 O         3.384142        -1.681304         0.636692
 C         2.416516        -0.715060         1.261819
 H        -0.639628        -0.055991         0.622201
 H        -0.297623         0.815954        -0.860887
 H        -0.144082        -0.896220        -0.884692
 H         2.275268         2.021708        -0.321892
 H         1.666141         1.627263         1.285051
 H         3.958364         0.793541         1.913178
 H         5.064280        -0.683388        -0.028283
 H         3.589676         0.754871        -1.603326
 H         3.889861        -0.998809        -2.192869
 H         1.987565        -1.073871         2.192626
