19
Iteration:  2243charge 0 multiplicity 1
 C         0.013634        -0.186944        -0.026116
 C         1.561964        -0.036945        -0.020350
 C         2.318826         1.318971         0.371100
 C         3.353286         0.401993         1.062179
 C         4.004093        -0.536032         0.063070
 C         3.480494        -0.355979        -1.337633
 O         1.964207        -0.313661        -1.345042
 O         3.277994        -1.687140         0.667966
 C         2.418070        -0.675873         1.155426
 H        -0.427215        -0.322556         0.882033
 H        -0.312742         0.745023        -0.590292
 H        -0.338770        -0.921452        -0.752973
 H         2.582470         1.985569        -0.371938
 H         1.699383         2.022670         0.930869
 H         4.064284         0.767043         1.933337
 H         5.011182        -0.751102         0.219777
 H         3.835802         0.580942        -1.853710
 H         3.844473        -1.141429        -1.988219
 H         1.821398        -1.021753         2.020002
