19
Iteration:  1886
 C        -0.036538         0.045328        -0.035626
 C         1.481926         0.004177        -0.055754
 C         2.217242         1.306206         0.371669
 C         3.242341         0.436062         1.036327
 C         4.099231        -0.518608         0.077083
 C         3.550583        -0.365605        -1.284214
 O         1.994079        -0.514006        -1.339657
 O         3.409626        -1.682651         0.647563
 C         2.416402        -0.800922         1.168784
 H        -0.662070        -0.018284         0.928239
 H        -0.351971         0.944865        -0.707318
 H        -0.279703        -0.828261        -0.686318
 H         2.572217         2.028687        -0.358744
 H         1.739124         1.974797         1.141724
 H         3.703381         0.921055         1.887655
 H         5.234929        -0.341592         0.000944
 H         3.614585         0.630881        -1.698188
 H         3.823396        -1.155054        -2.068979
 H         1.957875        -1.219714         2.102053
