19
Iteration:  4837charge 0 multiplicity 1
 C         0.051019         0.102165        -0.119639
 C         1.497699        -0.091462         0.073202
 C         2.222933         1.288908         0.480197
 C         3.256140         0.497732         1.151787
 C         4.080274        -0.471089        -0.004198
 C         3.422356        -0.293541        -1.364165
 O         2.004469        -0.544988        -1.296590
 O         3.389085        -1.687248         0.493951
 C         2.470481        -0.855330         1.224745
 H        -0.245226         1.124836        -0.611089
 H        -0.513592        -0.599534        -0.831253
 H        -0.476918         0.009000         0.814921
 H         2.505934         1.877314        -0.353577
 H         1.565388         1.797872         1.144863
 H         3.724376         0.720459         2.058364
 H         5.160920        -0.525579        -0.040164
 H         3.771806         0.614102        -1.998171
 H         3.759886        -1.150815        -1.888968
 H         1.906221        -1.208536         2.050675
