19
Iteration:  3286
 C         0.022744        -0.202813        -0.034964
 C         1.530138         0.039278        -0.006867
 C         2.216299         1.390031         0.452265
 C         3.366147         0.460496         1.058804
 C         4.007911        -0.593923         0.054792
 C         3.511416        -0.401017        -1.437165
 O         2.070467        -0.364812        -1.262899
 O         3.315085        -1.644592         0.629904
 C         2.294897        -0.676106         1.080626
 H        -0.400144        -0.592697         0.898549
 H        -0.585018         0.522786        -0.302321
 H        -0.195073        -1.060124        -0.729458
 H         2.547340         2.018423        -0.424086
 H         1.717762         2.002165         1.266190
 H         3.981905         0.788818         1.880349
 H         5.160209        -0.839536         0.020489
 H         3.947677         0.581776        -1.856515
 H         3.871409        -1.357268        -1.833074
 H         1.851647        -1.018620         2.002898
