19
Iteration:   964
 C         0.072213        -0.140632         0.057725
 C         1.548802        -0.013690        -0.099407
 C         2.265906         1.335814         0.340439
 C         3.271390         0.479068         1.085180
 C         3.946411        -0.487817         0.038903
 C         3.556372        -0.327200        -1.360332
 O         2.044960        -0.413347        -1.347789
 O         3.339802        -1.733460         0.722036
 C         2.324780        -0.729875         1.092480
 H        -0.181871         0.325322         0.968614
 H        -0.617104         0.450816        -0.641782
 H        -0.228979        -1.194629        -0.063995
 H         2.547598         1.939470        -0.528452
 H         1.513169         1.944171         1.030742
 H         3.869800         0.692056         1.936858
 H         5.100411        -0.448585         0.157432
 H         3.892804         0.618878        -1.841681
 H         3.845234        -1.193464        -1.969554
 H         1.736374        -1.095552         1.908862
