19
Iteration:  4601charge 0 multiplicity 1
 C         0.033870        -0.301453        -0.027879
 C         1.504253         0.112146         0.112271
 C         2.194617         1.389135         0.488023
 C         3.373636         0.457105         0.978712
 C         4.019013        -0.616214        -0.016452
 C         3.524341        -0.370616        -1.387309
 O         2.082746        -0.252833        -1.335656
 O         3.180886        -1.713807         0.554930
 C         2.422458        -0.721759         1.215763
 H        -0.278629         0.314541        -0.888548
 H        -0.028810        -1.334658        -0.229348
 H        -0.482619        -0.075848         0.895496
 H         2.417339         2.051918        -0.349395
 H         1.769349         1.877272         1.362871
 H         3.996930         0.834365         1.730030
 H         5.104555        -0.688352         0.024992
 H         3.969798         0.530738        -1.805020
 H         3.847545        -1.247111        -1.989039
 H         2.056207        -1.090373         2.184732
