19
Iteration:  3205
 C         0.035404        -0.032304         0.011791
 C         1.565803        -0.061775        -0.071390
 C         2.240867         1.257135         0.394754
 C         3.314584         0.448720         1.144251
 C         4.047737        -0.465771         0.103773
 C         3.449707        -0.320746        -1.314371
 O         2.026590        -0.506486        -1.294606
 O         3.343853        -1.611486         0.545556
 C         2.334094        -0.772518         1.068791
 H        -0.230898         0.799253         0.719104
 H        -0.249269         0.186428        -1.092982
 H        -0.398726        -0.945235         0.297399
 H         2.594696         1.959748        -0.345278
 H         1.602558         1.808250         1.074468
 H         3.793013         0.905078         2.063793
 H         5.110553        -0.628344         0.084904
 H         3.771549         0.636351        -1.852655
 H         3.990592        -1.065431        -2.000958
 H         1.692986        -1.325495         1.790385
