19
Iteration:  1461
 C        -0.012927        -0.093928        -0.102785
 C         1.529969         0.001698        -0.018762
 C         2.315015         1.349646         0.345990
 C         3.369583         0.527056         1.084516
 C         4.116270        -0.569960         0.069921
 C         3.497296        -0.323025        -1.298860
 O         1.983525        -0.467379        -1.277292
 O         3.297240        -1.740023         0.620525
 C         2.328611        -0.722074         1.129625
 H        -0.600208         0.470319         0.729615
 H        -0.424202         0.187078        -1.106717
 H        -0.329079        -1.162575         0.114616
 H         2.387319         2.238416        -0.368507
 H         1.710644         1.772314         1.109733
 H         4.136238         0.784568         1.859783
 H         5.234598        -0.699782         0.183742
 H         3.549027         0.854092        -1.466755
 H         3.783946        -0.897438        -2.190908
 H         1.797875        -1.187114         1.933434
