19
Iteration:  4808charge 0 multiplicity 1
 C        -0.033518        -0.003827        -0.129481
 C         1.476242        -0.026447         0.013361
 C         2.301453         1.308469         0.470939
 C         3.308679         0.417451         0.991873
 C         4.079444        -0.536615         0.003315
 C         3.413056        -0.239249        -1.316509
 O         2.019637        -0.452023        -1.260898
 O         3.421390        -1.684411         0.633974
 C         2.368779        -0.854413         1.124355
 H        -0.296469         0.966205        -0.641127
 H        -0.486245        -0.906385        -0.511258
 H        -0.434163        -0.016764         0.868826
 H         2.512917         2.062743        -0.324510
 H         1.770202         1.761200         1.353935
 H         3.913131         0.629510         1.884754
 H         5.177497        -0.563773         0.007242
 H         3.736469         0.716978        -1.625004
 H         3.753846        -1.018027        -2.072075
 H         1.791982        -1.158508         2.000711
