19
Iteration:  3966
 C        -0.029490        -0.063112        -0.067167
 C         1.501385         0.026780        -0.064212
 C         2.254673         1.307689         0.520617
 C         3.325291         0.401941         1.108421
 C         4.076081        -0.518152        -0.002027
 C         3.467107        -0.336066        -1.415972
 O         1.971298        -0.444790        -1.346183
 O         3.386256        -1.674596         0.622047
 C         2.412079        -0.751608         1.170379
 H        -0.380878         0.690679        -0.827993
 H        -0.315029        -1.143389        -0.300549
 H        -0.395641         0.215031         0.890474
 H         2.393795         2.138620        -0.260792
 H         1.778127         1.773184         1.405378
 H         3.788548         0.754127         2.159007
 H         5.234302        -0.526954         0.025239
 H         3.838453         0.640619        -1.796229
 H         3.832353        -1.163798        -1.963897
 H         1.882057        -1.200610         2.055434
