19
Iteration:   465
 C         0.065879        -0.150922         0.046188
 C         1.553131         0.041612        -0.041676
 C         2.238983         1.323058         0.358297
 C         3.230404         0.408173         1.081634
 C         4.074870        -0.523064         0.071801
 C         3.503429        -0.290361        -1.320141
 O         2.037861        -0.375852        -1.358159
 O         3.280927        -1.728531         0.595274
 C         2.372800        -0.764073         1.089718
 H        -0.389885         0.197169         0.938257
 H        -0.451888         0.277593        -0.811305
 H        -0.116479        -1.250120         0.184878
 H         2.673115         2.092895        -0.382183
 H         1.598580         2.012132         0.901849
 H         3.885678         0.791237         1.953455
 H         5.128279        -0.606156         0.348269
 H         3.833066         0.687756        -1.602699
 H         3.898801        -0.942269        -2.058859
 H         1.826423        -1.046217         2.103097
