19
Iteration:  4532
 C         0.001956         0.087993         0.034865
 C         1.504142        -0.106713         0.016941
 C         2.158109         1.220101         0.355952
 C         3.249471         0.350724         1.078567
 C         4.042487        -0.476489         0.003480
 C         3.448256        -0.233068        -1.376647
 O         2.057305        -0.412680        -1.302667
 O         3.442651        -1.675264         0.589888
 C         2.405660        -0.858326         1.149339
 H        -0.172604         0.131438        -1.045056
 H        -0.527767        -0.760516         0.519606
 H        -0.229295         0.906623         0.596454
 H         2.612574         1.912534        -0.413194
 H         1.667153         1.800083         1.211609
 H         3.812750         0.770087         1.947032
 H         5.141557        -0.617000         0.032093
 H         3.806179         0.768291        -1.650637
 H         3.825025        -1.031251        -2.141451
 H         1.808122        -1.209848         2.000888
