19
Iteration:  4023charge 0 multiplicity 1
 C        -0.021185        -0.200914        -0.004395
 C         1.527257         0.010032        -0.021446
 C         2.223021         1.333258         0.499836
 C         3.408810         0.531013         1.043155
 C         3.987525        -0.658076         0.087410
 C         3.475906        -0.333027        -1.459601
 O         2.082293        -0.314999        -1.388241
 O         3.297051        -1.720668         0.673722
 C         2.409950        -0.699470         1.142565
 H        -0.695255         0.718456        -0.059134
 H        -0.317502        -0.866611        -0.876699
 H        -0.244269        -0.724041         0.891215
 H         2.370944         2.019033        -0.346487
 H         1.704302         1.915729         1.252744
 H         4.012627         0.899433         1.975565
 H         5.098785        -0.705917         0.085734
 H         3.849158         0.669780        -1.727043
 H         3.792530        -0.948170        -2.294792
 H         1.689331        -1.120295         1.885648
