19
Iteration:  3961charge 0 multiplicity 1
 C         0.006755        -0.040205        -0.105410
 C         1.492622        -0.018947        -0.037541
 C         2.237944         1.284421         0.513840
 C         3.379222         0.419339         1.082765
 C         4.049274        -0.484493         0.010849
 C         3.411180        -0.306997        -1.414521
 O         2.005770        -0.442329        -1.337528
 O         3.387796        -1.703564         0.639803
 C         2.391184        -0.757586         1.164605
 H        -0.420988         0.590036        -0.862515
 H        -0.342939        -1.040028        -0.192211
 H        -0.303236         0.348374         0.919513
 H         2.481069         2.074040        -0.180146
 H         1.731348         1.693573         1.412746
 H         3.794177         0.726203         1.956054
 H         5.091328        -0.558491         0.141096
 H         3.720146         0.712847        -1.822890
 H         3.893671        -1.142753        -2.026378
 H         1.903947        -1.139889         2.044027
