19
Iteration:  1015
 C         0.000286        -0.029503        -0.137407
 C         1.498643        -0.015621         0.027745
 C         2.189273         1.353369         0.514107
 C         3.310529         0.441863         0.991056
 C         4.079778        -0.505135         0.017562
 C         3.453898        -0.392605        -1.391287
 O         2.084621        -0.564683        -1.301495
 O         3.396836        -1.649187         0.652758
 C         2.351284        -0.693181         1.184769
 H        -0.749529        -0.016986         0.826596
 H        -0.194715         0.858811        -0.696559
 H        -0.365230        -0.881396        -0.745901
 H         2.430746         2.239329        -0.150552
 H         1.714155         1.845042         1.291207
 H         3.925683         0.752115         1.952032
 H         5.104198        -0.577298         0.163469
 H         3.686429         0.526736        -2.007292
 H         3.827231        -1.112122        -2.125848
 H         1.781217        -1.049815         2.200340
