19
Iteration:  4078
 C         0.003204         0.030044        -0.053752
 C         1.499223        -0.086461         0.020745
 C         2.166972         1.358775         0.464992
 C         3.285880         0.442732         1.085741
 C         4.058152        -0.408476         0.006147
 C         3.518626        -0.311440        -1.389440
 O         2.033616        -0.492251        -1.283368
 O         3.352947        -1.725545         0.562382
 C         2.435785        -0.862899         1.193272
 H        -0.221096         0.914019        -0.722943
 H        -0.469986        -0.863577        -0.474325
 H        -0.424162         0.214092         0.917628
 H         2.713610         1.950836        -0.305602
 H         1.481957         1.964450         1.062950
 H         3.962930         0.778208         1.968057
 H         5.156494        -0.394181        -0.054601
 H         3.680110         0.647691        -2.071514
 H         3.891525        -1.212074        -1.903463
 H         1.892337        -1.389534         1.994409
