19
Iteration:  1666
 C        -0.003038        -0.196710        -0.207082
 C         1.555744        -0.019350         0.011976
 C         2.253433         1.334901         0.465707
 C         3.387332         0.471623         1.049732
 C         3.990151        -0.537680         0.068784
 C         3.429117        -0.494338        -1.346935
 O         2.030742        -0.286320        -1.286297
 O         3.322403        -1.659410         0.654614
 C         2.404080        -0.680358         1.189209
 H        -0.351596         0.218414         0.667637
 H        -0.378741         0.573782        -0.966787
 H        -0.352351        -1.214945        -0.466797
 H         2.437608         2.060908        -0.307312
 H         1.652962         1.765527         1.288362
 H         4.196593         1.085212         1.557025
 H         5.076938        -0.517137         0.338782
 H         3.807526         0.377118        -2.111110
 H         3.682878        -1.497727        -1.900562
 H         1.838719        -1.173408         2.041514
