19
Iteration:  2716
 C        -0.049379        -0.092491        -0.069487
 C         1.526581         0.013268        -0.001384
 C         2.248073         1.411557         0.420263
 C         3.361510         0.448207         1.082036
 C         4.019491        -0.547100         0.025789
 C         3.531978        -0.335807        -1.284814
 O         2.049686        -0.467346        -1.289993
 O         3.327314        -1.750551         0.524464
 C         2.353097        -0.737176         1.148310
 H        -0.440066         0.022440         1.008055
 H        -0.457203         0.778469        -0.573415
 H        -0.358339        -1.097237        -0.345076
 H         2.659301         2.137079        -0.242911
 H         1.597821         1.953190         1.166994
 H         4.012413         0.768317         1.917883
 H         5.052758        -0.455623         0.051852
 H         3.678288         0.708181        -1.727042
 H         3.913996        -0.989938        -2.046281
 H         1.876424        -1.191675         1.990909
