19
Iteration:   375
 C        -0.006650        -0.069806         0.031265
 C         1.510175         0.029636        -0.079831
 C         2.215634         1.316331         0.336042
 C         3.274862         0.433501         1.130796
 C         4.057422        -0.496854         0.101985
 C         3.525039        -0.353674        -1.325348
 O         2.019563        -0.397784        -1.386705
 O         3.437829        -1.722231         0.620326
 C         2.337691        -0.771511         1.111192
 H        -0.213084        -0.184808         1.123137
 H        -0.566895         0.810940        -0.319485
 H        -0.438298        -1.019038        -0.291250
 H         2.378656         2.103077        -0.477086
 H         1.425448         1.923888         0.984549
 H         3.953616         0.782422         2.013719
 H         5.193479        -0.569308        -0.016390
 H         3.880475         0.487209        -1.865676
 H         3.841384        -1.236782        -1.820354
 H         1.724183        -1.150227         2.057406
