19
Iteration:  1292charge 0 multiplicity 1
 C         0.058004         0.014475        -0.067137
 C         1.511433        -0.061901         0.048230
 C         2.149422         1.269182         0.386027
 C         3.277968         0.462161         1.116655
 C         4.042570        -0.439650        -0.035597
 C         3.444871        -0.505967        -1.362320
 O         2.027391        -0.281707        -1.388302
 O         3.450137        -1.692736         0.706621
 C         2.394138        -0.821936         1.205710
 H        -0.408533         0.648839         0.622046
 H        -0.072430         0.575723        -1.105543
 H        -0.417968        -0.983297        -0.166904
 H         2.239326         2.010574        -0.364386
 H         1.410827         1.719985         1.183611
 H         3.933912         0.791549         1.848540
 H         5.142117        -0.514333         0.009249
 H         3.989453         0.166543        -2.010194
 H         3.728208        -1.505700        -1.826736
 H         1.740616        -1.232473         2.027614
