19
Iteration:  4588charge 0 multiplicity 1
 C         0.105411        -0.229211        -0.055912
 C         1.583159        -0.039399         0.052450
 C         2.212407         1.390477         0.507912
 C         3.397622         0.477161         1.068632
 C         3.967261        -0.456000        -0.029614
 C         3.471817        -0.348324        -1.445798
 O         2.080390        -0.299020        -1.247554
 O         3.194120        -1.772252         0.540865
 C         2.366692        -0.731846         1.219276
 H        -0.402157        -0.011466        -1.024973
 H        -0.062585        -1.273577         0.011098
 H        -0.407671         0.275529         0.647439
 H         2.499900         2.109104        -0.291552
 H         1.779140         2.035826         1.346924
 H         4.220868         0.854814         1.613373
 H         5.003673        -0.732071         0.126842
 H         3.866581         0.525914        -2.012624
 H         3.647721        -1.302599        -2.107152
 H         1.670043        -1.012708         2.002449
