19
Iteration:   892charge 0 multiplicity 1
 C        -0.064330        -0.184879        -0.132086
 C         1.521071        -0.007101         0.014761
 C         2.220161         1.360039         0.446973
 C         3.420112         0.470623         1.051258
 C         4.031429        -0.526782         0.089089
 C         3.499235        -0.390042        -1.369786
 O         1.995018        -0.426697        -1.306441
 O         3.315727        -1.660774         0.663417
 C         2.440016        -0.651532         1.155357
 H        -0.734714         0.198005         0.614101
 H        -0.389099         0.380913        -0.981951
 H        -0.179828        -1.190901        -0.479413
 H         2.529995         1.952719        -0.383156
 H         1.646467         1.865660         1.109091
 H         4.152551         0.777223         1.780210
 H         5.044003        -0.717009         0.166392
 H         3.889103         0.595132        -1.853604
 H         3.802617        -1.258443        -2.012922
 H         1.916273        -0.966382         2.073941
