19
Iteration:  4232
 C        -0.097379         0.093547        -0.035355
 C         1.459126         0.015948        -0.046988
 C         2.262343         1.276607         0.441277
 C         3.253078         0.430112         1.095394
 C         4.081422        -0.461468         0.030381
 C         3.521802        -0.319839        -1.426072
 O         2.036719        -0.533234        -1.212851
 O         3.505431        -1.688706         0.574429
 C         2.351136        -0.862715         1.153064
 H        -0.507275         1.047571        -0.309619
 H        -0.394738        -0.581865        -0.744329
 H        -0.420417        -0.211881         1.003404
 H         2.578500         1.900366        -0.482768
 H         1.691497         1.909264         1.162898
 H         3.588768         0.886554         1.981241
 H         5.137527        -0.380645        -0.043897
 H         3.728147         0.512532        -2.039807
 H         3.690171        -1.255525        -1.954662
 H         1.726173        -1.268806         1.909899
