19
Iteration:   416charge 0 multiplicity 1
 C         0.082933        -0.048604        -0.236898
 C         1.538709         0.054797        -0.012571
 C         2.108798         1.352298         0.519415
 C         3.364829         0.508960         1.084232
 C         4.009869        -0.554030         0.010829
 C         3.409701        -0.350139        -1.397005
 O         1.979325        -0.471051        -1.234524
 O         3.414187        -1.744276         0.587840
 C         2.453204        -0.764437         1.251713
 H        -0.546355         0.070632         0.686866
 H        -0.172841         0.666998        -1.013915
 H        -0.148658        -1.038373        -0.484292
 H         2.116470         2.124280        -0.161848
 H         1.666550         1.917382         1.378399
 H         3.792379         0.839114         1.947355
 H         5.109590        -0.712875        -0.016197
 H         3.878450         0.616503        -1.911705
 H         3.737434        -1.189591        -2.042806
 H         2.117999        -1.159084         2.136121
