19
Iteration:  1438
 C        -0.019538         0.000923        -0.143608
 C         1.529832        -0.030768         0.058279
 C         2.188405         1.307080         0.437663
 C         3.251177         0.428338         1.023292
 C         3.993974        -0.505867         0.010075
 C         3.474850        -0.429307        -1.402335
 O         2.114145        -0.395583        -1.261840
 O         3.379443        -1.641927         0.651627
 C         2.425990        -0.790534         1.183333
 H        -0.453200         0.624861         0.672398
 H        -0.270315         0.432265        -1.178651
 H        -0.552114        -0.957977         0.050707
 H         2.460171         2.144728        -0.281593
 H         1.599453         1.764595         1.227413
 H         4.002526         0.681379         1.851650
 H         5.137841        -0.640060         0.075453
 H         3.728648         0.503253        -2.082490
 H         3.847198        -1.425622        -1.801994
 H         1.932155        -1.205608         2.037908
