19
Iteration:  3660
 C         0.044536         0.020849        -0.003208
 C         1.573911        -0.029439        -0.045096
 C         2.259341         1.308021         0.357448
 C         3.226923         0.438234         1.110978
 C         4.048691        -0.490456         0.077333
 C         3.397308        -0.375241        -1.375703
 O         2.032821        -0.546274        -1.263563
 O         3.444451        -1.629798         0.659474
 C         2.324983        -0.766808         0.999964
 H        -0.356014        -0.169923         0.981030
 H        -0.263152         1.045437        -0.263646
 H        -0.467145        -0.692384        -0.709358
 H         2.616879         2.078118        -0.320823
 H         1.687369         1.775744         1.172961
 H         3.890995         0.760071         1.949783
 H         5.152591        -0.504811         0.042835
 H         3.638960         0.625744        -1.773992
 H         3.761313        -1.194629        -1.913643
 H         1.660130        -1.095146         1.844484
