19
Iteration:  2048
 C         0.042827         0.004228        -0.149025
 C         1.497627        -0.069888         0.045641
 C         2.191858         1.252722         0.474810
 C         3.341841         0.465530         1.050956
 C         4.064779        -0.517636         0.031065
 C         3.486308        -0.365841        -1.445987
 O         1.954621        -0.411092        -1.282570
 O         3.376181        -1.673637         0.634320
 C         2.416742        -0.763359         1.225935
 H        -0.496314        -0.129340         0.742485
 H        -0.176207         1.061518        -0.582008
 H        -0.277619        -0.730809        -0.901452
 H         2.419157         2.024956        -0.275109
 H         1.478600         1.815807         1.197740
 H         4.094878         0.832087         1.797070
 H         5.152525        -0.578370         0.018509
 H         3.830850         0.559385        -1.915042
 H         3.695005        -1.325063        -1.892568
 H         1.944502        -1.167366         2.190204
