19
Iteration:  1593charge 0 multiplicity 1
 C        -0.000449        -0.073989        -0.039321
 C         1.535038        -0.017328        -0.022674
 C         2.225165         1.301404         0.355435
 C         3.333458         0.458935         1.073438
 C         4.033672        -0.514797         0.063077
 C         3.514892        -0.316407        -1.344551
 O         2.110357        -0.539873        -1.214186
 O         3.320584        -1.617496         0.540535
 C         2.257425        -0.751405         1.169027
 H        -0.317944         0.454591         0.899661
 H        -0.355222         0.586921        -0.769749
 H        -0.329675        -1.089665        -0.297451
 H         2.600055         1.812908        -0.617835
 H         1.801184         2.016628         1.036888
 H         3.944898         0.767509         1.917687
 H         5.134620        -0.624225         0.168674
 H         3.793335         0.677923        -1.569820
 H         3.816699        -0.891467        -2.205057
 H         1.689284        -1.156397         1.969366
