19
Iteration:  1669charge 0 multiplicity 1
 C         0.020654        -0.170588        -0.221159
 C         1.580342        -0.016272         0.030253
 C         2.223061         1.309405         0.460662
 C         3.383984         0.487891         1.023990
 C         3.984795        -0.531525         0.058448
 C         3.419799        -0.484613        -1.334015
 O         2.026247        -0.306884        -1.265919
 O         3.304742        -1.630176         0.649562
 C         2.416900        -0.720708         1.176846
 H        -0.480911         0.117728         0.794815
 H        -0.238776         0.548280        -0.923436
 H        -0.305407        -1.191415        -0.492156
 H         2.504247         2.206763        -0.340576
 H         1.629305         1.784849         1.251547
 H         4.192611         0.987676         1.573902
 H         5.094306        -0.587507         0.293732
 H         3.908778         0.371982        -1.967717
 H         3.658044        -1.537010        -1.850120
 H         1.848513        -1.107621         1.990809
