19
Iteration:  3081charge 0 multiplicity 1
 C        -0.000715        -0.096469         0.007380
 C         1.558503        -0.056505        -0.054308
 C         2.175795         1.336260         0.305444
 C         3.277714         0.470361         1.137862
 C         4.088870        -0.582884         0.074653
 C         3.457784        -0.329323        -1.367102
 O         2.055890        -0.380498        -1.297124
 O         3.350808        -1.673372         0.626035
 C         2.378483        -0.775247         1.143542
 H        -0.331505         0.001882         1.022943
 H        -0.340577         0.802034        -0.599247
 H        -0.503990        -0.898824        -0.638001
 H         2.650253         2.012533        -0.387749
 H         1.695453         1.912926         1.036757
 H         4.024137         0.738657         1.892463
 H         5.102892        -0.773631         0.155871
 H         3.832367         0.756028        -1.727909
 H         3.797842        -1.022480        -2.160827
 H         1.791502        -1.184707         1.980341
