19
Iteration:  1068
 C        -0.045967        -0.201679        -0.050546
 C         1.505691         0.066729        -0.021311
 C         2.218579         1.348261         0.434399
 C         3.284381         0.466218         1.075769
 C         4.039066        -0.543937         0.031314
 C         3.604070        -0.498275        -1.411506
 O         2.047067        -0.247122        -1.311971
 O         3.389133        -1.663394         0.696722
 C         2.332349        -0.745784         1.073614
 H        -0.434369         0.028824         1.077817
 H        -0.553623         0.326266        -0.808267
 H        -0.352872        -1.269494        -0.012120
 H         2.488327         1.979197        -0.545184
 H         1.830963         2.101367         1.137514
 H         3.841271         0.814182         2.056375
 H         5.094414        -0.766476         0.131901
 H         3.977500         0.335362        -1.934573
 H         3.714467        -1.461583        -1.939797
 H         1.623326        -1.129109         1.903733
