19
Iteration:  4939charge 0 multiplicity 1
 C         0.040500        -0.222744        -0.030175
 C         1.505376         0.049436        -0.021178
 C         2.306498         1.345720         0.563551
 C         3.438436         0.479545         1.066873
 C         4.022289        -0.559989         0.033389
 C         3.440329        -0.323840        -1.370839
 O         2.050323        -0.404012        -1.298475
 O         3.264352        -1.674639         0.592587
 C         2.306593        -0.716359         1.042434
 H        -0.446532         0.194479        -1.029404
 H        -0.144909        -1.262968        -0.201745
 H        -0.611094         0.315539         0.714835
 H         2.485820         2.202440        -0.100503
 H         1.882885         1.839030         1.454814
 H         4.033388         0.702721         1.957610
 H         5.094481        -0.760469        -0.123530
 H         3.624684         0.639139        -1.982720
 H         3.974465        -1.146982        -1.943010
 H         1.813238        -1.004890         1.944738
