19
Iteration:  4350
 C        -0.063187        -0.100337        -0.028214
 C         1.570882         0.037798        -0.059082
 C         2.237968         1.352451         0.542887
 C         3.365888         0.420041         1.080497
 C         4.050935        -0.526572         0.024095
 C         3.483671        -0.335921        -1.420893
 O         2.000704        -0.399431        -1.296212
 O         3.363467        -1.693147         0.592278
 C         2.399620        -0.785896         1.093967
 H        -0.457633        -0.027337        -1.077397
 H        -0.420827        -1.106453         0.232954
 H        -0.493883         0.692827         0.621836
 H         2.284153         2.242996        -0.091923
 H         1.677878         1.553315         1.428576
 H         4.010013         0.671727         1.905511
 H         5.154512        -0.574619         0.097109
 H         3.763438         0.733678        -1.719388
 H         3.763142        -1.135884        -2.023260
 H         1.809685        -1.227861         1.891355
