19
Iteration:  4065charge 0 multiplicity 1
 C         0.037955        -0.067019        -0.117921
 C         1.555706        -0.024727         0.054088
 C         2.246470         1.267078         0.454821
 C         3.341339         0.474840         1.186921
 C         4.030043        -0.438994        -0.001044
 C         3.424089        -0.310341        -1.375027
 O         1.998794        -0.496312        -1.269971
 O         3.327288        -1.672074         0.523554
 C         2.398429        -0.808605         1.171366
 H        -0.208134         0.971910        -0.474071
 H        -0.336150        -0.807611        -0.885252
 H        -0.426804        -0.178720         0.792913
 H         2.386945         1.920383        -0.535319
 H         1.709764         1.980932         1.160625
 H         4.024255         1.124969         1.895539
 H         5.102920        -0.758998         0.082667
 H         3.811376         0.711924        -1.906180
 H         3.838176        -1.099576        -1.982973
 H         1.932689        -1.204961         2.124139
