19
Iteration:  2049
 C         0.045384         0.004685        -0.141850
 C         1.496982        -0.066521         0.044883
 C         2.189793         1.249007         0.473882
 C         3.346991         0.465415         1.053712
 C         4.065799        -0.516929         0.030612
 C         3.479320        -0.364351        -1.445315
 O         1.957498        -0.410525        -1.286357
 O         3.372960        -1.679963         0.641566
 C         2.414292        -0.759650         1.222400
 H        -0.512343        -0.154032         0.747098
 H        -0.166662         1.020903        -0.594746
 H        -0.255191        -0.709405        -0.904872
 H         2.428295         2.042959        -0.282123
 H         1.480928         1.834330         1.176145
 H         4.063446         0.830844         1.798293
 H         5.178017        -0.557177         0.010922
 H         3.851784         0.597505        -1.942629
 H         3.684395        -1.335925        -1.907361
 H         1.958945        -1.186088         2.165464
