19
Iteration:  1938charge 0 multiplicity 1
 C         0.063978        -0.176699        -0.077916
 C         1.540696         0.066437        -0.034324
 C         2.218286         1.361849         0.450072
 C         3.397969         0.509165         1.027560
 C         3.972137        -0.530917         0.072250
 C         3.521270        -0.356522        -1.398418
 O         2.043375        -0.391607        -1.316828
 O         3.236113        -1.768732         0.619412
 C         2.398400        -0.705686         1.207448
 H        -0.284788         0.080850         0.816677
 H        -0.475983         0.314467        -0.934771
 H        -0.149342        -1.233180        -0.202211
 H         2.289310         2.233586        -0.186650
 H         1.700697         1.756206         1.431801
 H         4.028841         0.845451         1.886986
 H         5.025829        -0.519692         0.215951
 H         3.884666         0.422006        -2.132671
 H         3.728867        -1.186975        -2.061895
 H         1.888678        -1.078587         2.168832
