19
Iteration:  2117
 C         0.130134        -0.147952         0.036497
 C         1.575294         0.003372        -0.045476
 C         2.171678         1.364138         0.404454
 C         3.315185         0.450268         1.042034
 C         3.998211        -0.586238         0.042953
 C         3.526981        -0.313696        -1.388804
 O         2.088899        -0.373057        -1.266469
 O         3.229568        -1.702484         0.543960
 C         2.341391        -0.745118         1.169355
 H        -0.318611         0.451135         0.876806
 H        -0.277054         0.332635        -0.802041
 H        -0.199220        -1.176594         0.067975
 H         2.522182         2.018955        -0.513337
 H         1.629336         1.979377         1.129430
 H         3.938821         0.737443         1.804021
 H         5.129211        -0.681092         0.230887
 H         3.822185         0.670682        -1.656561
 H         3.643497        -1.253024        -1.931093
 H         1.769545        -1.089159         2.023402
