19
Iteration:  2411charge 0 multiplicity 1
 C        -0.079216        -0.125384        -0.078653
 C         1.492787         0.032534        -0.025592
 C         2.293143         1.356862         0.451558
 C         3.330707         0.435366         1.032892
 C         4.040559        -0.521698         0.005689
 C         3.489002        -0.413052        -1.371288
 O         2.045172        -0.319612        -1.326524
 O         3.365579        -1.709235         0.731041
 C         2.377409        -0.773640         1.185708
 H        -0.839463        -0.228169         0.808193
 H        -0.391823         0.739947        -0.611139
 H        -0.231671        -1.059093        -0.690370
 H         2.601115         1.910287        -0.444189
 H         1.635564         2.010729         1.067192
 H         4.073302         0.685705         1.791280
 H         5.160990        -0.614234        -0.002760
 H         3.759986         0.458052        -2.051929
 H         3.860006        -1.226626        -2.091341
 H         1.931213        -1.024854         2.161513
