19
Iteration:  2980charge 0 multiplicity 1
 C         0.032294        -0.254035         0.024492
 C         1.514392         0.117208         0.015381
 C         2.217265         1.397461         0.454229
 C         3.390164         0.457065         1.054674
 C         4.060336        -0.577185         0.032816
 C         3.509898        -0.385624        -1.375222
 O         2.030323        -0.292471        -1.356239
 O         3.284476        -1.727717         0.630584
 C         2.345659        -0.714260         1.061243
 H        -0.596991         0.233578         0.910807
 H        -0.344613         0.217819        -0.851939
 H        -0.115994        -1.420486        -0.201299
 H         2.546095         2.017358        -0.377892
 H         1.496164         1.843676         1.126259
 H         3.910984         0.464790         2.010135
 H         5.072815        -0.745120         0.197667
 H         4.033694         0.613081        -1.682270
 H         3.932060        -1.296819        -1.748011
 H         1.651226        -1.005108         1.817324
