19
Iteration:   556
 C        -0.074327        -0.072543        -0.227287
 C         1.498331        -0.029625         0.052405
 C         2.248393         1.330628         0.545047
 C         3.402552         0.420477         1.052213
 C         3.974055        -0.492145         0.028825
 C         3.426189        -0.255601        -1.385150
 O         2.076020        -0.536076        -1.295470
 O         3.377389        -1.676917         0.623007
 C         2.412574        -0.729506         1.222436
 H        -0.685921        -0.007441         0.723081
 H        -0.209343         0.825775        -0.830617
 H        -0.405817        -0.952331        -0.760649
 H         2.464666         2.061700        -0.220023
 H         1.714284         1.830366         1.280854
 H         4.079255         0.643903         1.798996
 H         5.025245        -0.561297        -0.124572
 H         3.818249         0.658152        -1.824392
 H         3.785534        -1.105587        -2.080506
 H         1.970694        -0.971677         2.145499
