19
Iteration:    20
 C         0.014772        -0.092450        -0.010753
 C         1.506140        -0.019718        -0.027201
 C         2.055249         1.388819         0.432924
 C         3.288992         0.510917         1.048263
 C         4.103807        -0.536677         0.029248
 C         3.485703        -0.506287        -1.365108
 O         2.023087        -0.259373        -1.327779
 O         3.491992        -1.737087         0.697741
 C         2.401095        -0.782335         1.049000
 H        -0.330273         0.116540         0.930988
 H        -0.225002         0.674654        -0.687443
 H        -0.430163        -1.034332        -0.483999
 H         2.188532         2.031033        -0.323019
 H         1.418764         1.837518         1.254296
 H         3.795880         0.744299         2.064582
 H         5.269493        -0.600362         0.025880
 H         3.895647         0.276649        -1.975447
 H         3.583544        -1.468494        -1.739572
 H         1.792921        -1.097629         1.942286
