19
Iteration:  4261charge 0 multiplicity 1
 C         0.097598        -0.039949        -0.103950
 C         1.575196        -0.053693        -0.043393
 C         2.254593         1.304917         0.483142
 C         3.365130         0.510367         1.078705
 C         3.973614        -0.539467         0.035430
 C         3.427506        -0.294673        -1.331964
 O         1.977390        -0.520963        -1.297387
 O         3.308920        -1.685039         0.559931
 C         2.446572        -0.774948         1.218597
 H        -0.359294         0.972231        -0.475254
 H        -0.208566        -0.828997        -0.931774
 H        -0.336466        -0.139699         0.878639
 H         2.338367         2.085574        -0.312215
 H         1.655538         1.672732         1.329126
 H         3.893129         1.096589         1.943143
 H         5.098271        -0.530947        -0.181171
 H         3.594652         0.816533        -1.643027
 H         3.747231        -0.980972        -2.085378
 H         1.778279        -1.147840         2.044339
