19
Iteration:  3283charge 0 multiplicity 1
 C         0.032348        -0.211440        -0.059052
 C         1.518645         0.029220        -0.017688
 C         2.235330         1.421836         0.474720
 C         3.338794         0.477049         1.050587
 C         3.999057        -0.621032         0.041212
 C         3.493887        -0.394667        -1.439923
 O         2.078070        -0.359204        -1.289137
 O         3.312182        -1.639987         0.647652
 C         2.320331        -0.701004         1.117349
 H        -0.407120        -0.675184         0.915161
 H        -0.632585         0.652527        -0.362342
 H        -0.135302        -1.085400        -0.571199
 H         2.548274         2.088216        -0.296742
 H         1.688037         1.929778         1.275540
 H         4.083523         0.886020         1.701271
 H         5.086811        -0.817711         0.096293
 H         4.018259         0.473563        -1.781352
 H         3.836643        -1.327777        -1.957237
 H         1.869549        -1.049976         2.041759
