19
Iteration:  1865charge 0 multiplicity 1
 C         0.073535        -0.012239        -0.000115
 C         1.599210        -0.078723        -0.064376
 C         2.224023         1.283202         0.344433
 C         3.284689         0.466886         1.132604
 C         3.997293        -0.456463         0.135387
 C         3.460960        -0.324281        -1.387921
 O         2.101526        -0.503818        -1.334144
 O         3.317439        -1.678513         0.639643
 C         2.307451        -0.766054         1.105910
 H        -0.018039         0.048845         1.194902
 H        -0.318792         0.951699        -0.486779
 H        -0.566608        -0.868428        -0.335576
 H         2.462624         1.959854        -0.476910
 H         1.484878         1.828690         0.938813
 H         3.894235         0.912006         1.914197
 H         5.160535        -0.562026         0.077160
 H         3.658839         0.604377        -2.007701
 H         3.973066        -1.164353        -2.036209
 H         1.665095        -1.068485         1.944509
