19
Iteration:  4851charge 0 multiplicity 1
 C         0.045110         0.034435        -0.079110
 C         1.564394        -0.080972        -0.012623
 C         2.208837         1.275421         0.503203
 C         3.326961         0.372493         1.100875
 C         3.994877        -0.414840         0.020041
 C         3.435267        -0.367995        -1.417884
 O         2.025724        -0.488171        -1.238114
 O         3.392789        -1.615247         0.584078
 C         2.328429        -0.811239         1.098320
 H         0.067774         1.121314        -0.536627
 H        -0.369459        -0.766293        -0.689038
 H        -0.439953         0.058485         0.897323
 H         2.503450         2.032378        -0.247059
 H         1.655668         1.784475         1.326590
 H         4.027044         0.765570         1.823824
 H         5.083681        -0.484434         0.093718
 H         3.600304         0.616667        -1.821735
 H         3.853497        -1.170035        -2.087200
 H         1.936798        -1.317091         1.957043
