19
Iteration:  3802charge 0 multiplicity 1
 C         0.026796         0.036570        -0.052707
 C         1.547075        -0.060819        -0.031671
 C         2.326544         1.244849         0.387515
 C         3.343465         0.381551         1.138415
 C         4.023310        -0.405086         0.015713
 C         3.434888        -0.283236        -1.373023
 O         2.010093        -0.575670        -1.299818
 O         3.357048        -1.659008         0.620473
 C         2.322754        -0.748540         1.130429
 H        -0.413164         1.017967         0.229775
 H        -0.434358        -0.342078        -1.003052
 H        -0.350285        -0.716825         0.673157
 H         2.499144         2.050843        -0.299511
 H         1.645732         1.648964         1.083322
 H         3.819395         0.943320         2.013238
 H         5.116029        -0.636845         0.006817
 H         3.634415         0.820481        -1.721948
 H         3.815116        -1.017380        -2.047528
 H         1.960889        -0.926461         2.162269
