19
Iteration:   874charge 0 multiplicity 1
 C         0.034177        -0.123748        -0.052728
 C         1.516914         0.000880        -0.088532
 C         2.281740         1.357624         0.339738
 C         3.295313         0.491432         1.027824
 C         4.056683        -0.515395         0.053100
 C         3.463805        -0.312897        -1.313783
 O         2.052122        -0.518527        -1.290379
 O         3.340916        -1.702554         0.700276
 C         2.307348        -0.729687         1.099626
 H        -0.072607         0.072187         1.081902
 H        -0.550193         0.664411        -0.556523
 H        -0.271553        -1.158323        -0.341072
 H         2.592917         2.241897        -0.376716
 H         1.734492         1.855927         1.270687
 H         3.725040         0.858005         2.051830
 H         5.188448        -0.594997        -0.070107
 H         3.807029         0.702238        -1.614296
 H         3.889148        -0.979413        -2.021193
 H         1.659585        -1.070562         2.036023
