19
Iteration:  4749
 C        -0.037477        -0.320357         0.031522
 C         1.561736         0.097623         0.081744
 C         2.273374         1.396763         0.498133
 C         3.351787         0.408476         1.050726
 C         4.090456        -0.598330         0.000786
 C         3.521235        -0.385155        -1.386654
 O         2.088337        -0.211336        -1.300121
 O         3.212039        -1.693082         0.547245
 C         2.342104        -0.679476         1.054507
 H        -0.607741        -0.045629        -0.964377
 H         0.071131        -1.475131         0.057062
 H        -0.430430         0.324774         0.883501
 H         2.469026         1.958030        -0.397575
 H         1.573991         2.010860         1.056240
 H         3.820093         0.510981         2.048886
 H         5.140612        -0.726128         0.288676
 H         4.018424         0.431963        -1.937224
 H         3.651563        -1.260425        -1.931557
 H         1.712022        -1.201313         1.776722
