19
Iteration:  4566charge 0 multiplicity 1
 C         0.047025        -0.113593        -0.011814
 C         1.515458         0.064972         0.001125
 C         2.224913         1.313103         0.462187
 C         3.355283         0.387401         1.108978
 C         4.068353        -0.555445         0.028386
 C         3.418628        -0.334453        -1.318227
 O         1.976130        -0.414585        -1.361512
 O         3.369183        -1.649817         0.563249
 C         2.381111        -0.721106         1.108307
 H        -0.357295        -0.090659        -1.055208
 H        -0.207674        -1.113411         0.291035
 H        -0.530826         0.564140         0.452565
 H         2.638079         2.164264        -0.085279
 H         1.804994         1.830499         1.370038
 H         3.911195         0.620005         1.989697
 H         5.159644        -0.681032        -0.067792
 H         3.739001         0.639573        -1.716552
 H         3.781682        -1.116126        -2.088565
 H         1.868146        -1.195630         1.936758
