19
Iteration:  2696charge 0 multiplicity 1
 C         0.035747        -0.161196        -0.009311
 C         1.568941         0.029097         0.011829
 C         2.269492         1.327308         0.431421
 C         3.328842         0.417405         1.029461
 C         4.078428        -0.575204         0.064553
 C         3.516534        -0.289929        -1.401187
 O         2.093611        -0.363521        -1.271163
 O         3.187797        -1.673651         0.575787
 C         2.312813        -0.727599         1.109669
 H        -0.357545         0.028320         1.069192
 H        -0.436842         0.434790        -0.646034
 H         0.035512        -1.278700        -0.113177
 H         2.433058         1.877449        -0.499851
 H         1.695629         1.825688         1.249267
 H         3.701616         0.875661         1.927015
 H         5.156309        -0.730722         0.120189
 H         3.892870         0.667482        -1.907115
 H         3.776920        -1.174664        -2.047678
 H         1.731881        -1.085693         1.939869
