19
Iteration:  1137charge 0 multiplicity 1
 C        -0.008104        -0.029829        -0.183234
 C         1.478890         0.024842        -0.006724
 C         2.238009         1.304075         0.423340
 C         3.358286         0.499297         1.012632
 C         4.050362        -0.534999         0.103369
 C         3.493050        -0.320624        -1.303194
 O         1.973823        -0.485748        -1.221364
 O         3.410053        -1.731928         0.621263
 C         2.381955        -0.772606         1.108903
 H        -0.556987         0.111980         0.775624
 H        -0.314083         0.629912        -1.085228
 H        -0.379200        -1.049547        -0.358617
 H         2.374212         2.002273        -0.423437
 H         1.829878         1.943195         1.183198
 H         3.903633         0.889715         1.861971
 H         5.095928        -0.415535         0.164634
 H         3.687978         0.652518        -1.643692
 H         3.820579        -1.095317        -2.016124
 H         1.951217        -1.155076         2.090280
