19
Iteration:  1284charge 0 multiplicity 1
 C         0.011287        -0.020889        -0.077489
 C         1.522364        -0.058629        -0.024303
 C         2.114310         1.338030         0.485399
 C         3.249618         0.436935         1.125691
 C         4.064894        -0.514168         0.001413
 C         3.468574        -0.494000        -1.430690
 O         2.058718        -0.327660        -1.356340
 O         3.440210        -1.699262         0.679237
 C         2.424131        -0.751862         1.211798
 H        -0.372966         0.780733         0.663196
 H        -0.267063         0.447334        -1.169492
 H        -0.650507        -0.971817        -0.074844
 H         2.448251         1.924090        -0.364186
 H         1.513274         1.915770         1.203246
 H         3.955798         0.900965         1.883494
 H         5.218182        -0.327217        -0.055533
 H         3.998953         0.221187        -2.038143
 H         3.543313        -1.486818        -1.941201
 H         1.835389        -1.120830         2.035101
