19
Iteration:  4536
 C        -0.038235         0.046905         0.038759
 C         1.520853        -0.082555         0.023699
 C         2.186130         1.230308         0.351249
 C         3.245829         0.378801         1.064839
 C         4.019344        -0.489316         0.012341
 C         3.450326        -0.221090        -1.388107
 O         2.069691        -0.412859        -1.298746
 O         3.446479        -1.705317         0.623334
 C         2.422912        -0.856065         1.109198
 H        -0.404015         0.158350        -1.054405
 H        -0.642020        -0.730210         0.450132
 H        -0.192358         1.071496         0.583576
 H         2.647823         1.977782        -0.239363
 H         1.765559         1.754550         1.154842
 H         3.733580         0.695791         1.931291
 H         5.103629        -0.551792         0.050502
 H         3.786223         0.757685        -1.730442
 H         3.778182        -0.952447        -2.074416
 H         1.944539        -1.302161         1.994482
