19
Iteration:   441
 C        -0.050197        -0.163633        -0.163956
 C         1.540731        -0.046604         0.017147
 C         2.274998         1.281101         0.470589
 C         3.439478         0.454678         1.044350
 C         4.006243        -0.498420        -0.035517
 C         3.475109        -0.290612        -1.353665
 O         2.057071        -0.434278        -1.225605
 O         3.311663        -1.659779         0.623731
 C         2.322167        -0.720890         1.161398
 H        -0.610261         0.225024         0.672323
 H        -0.229119         0.471531        -1.028859
 H        -0.504433        -1.156929        -0.167287
 H         2.330112         2.209902        -0.201533
 H         1.758518         1.866470         1.337560
 H         4.157050         0.889717         1.854579
 H         5.141225        -0.691844        -0.023463
 H         3.910264         0.714453        -1.674252
 H         3.834578        -0.945061        -2.054692
 H         1.673954        -1.189935         2.038095
