19
Iteration:  3437
 C         0.123604        -0.202225         0.059406
 C         1.562292        -0.032809        -0.050170
 C         2.254957         1.351498         0.416458
 C         3.366531         0.423393         0.996690
 C         3.956871        -0.523350         0.032359
 C         3.475461        -0.318349        -1.376372
 O         2.101370        -0.313457        -1.350007
 O         3.264159        -1.714326         0.675249
 C         2.256550        -0.723354         1.140468
 H        -0.264922         0.213342         1.063690
 H        -0.429538         0.319029        -0.793314
 H        -0.191725        -1.264088        -0.139440
 H         2.422437         2.109572        -0.332448
 H         1.670840         1.818678         1.200117
 H         4.054611         0.661202         1.789049
 H         5.015052        -0.771888         0.079131
 H         3.856963         0.727445        -1.730430
 H         3.981361        -1.017180        -2.112765
 H         1.543834        -0.968378         1.950470
