19
Iteration:  4027charge 0 multiplicity 1
 C        -0.036677        -0.201574        -0.047798
 C         1.533599         0.051333        -0.026041
 C         2.238150         1.362582         0.510103
 C         3.399366         0.533658         1.056443
 C         4.005729        -0.645442         0.067195
 C         3.471232        -0.308295        -1.446507
 O         2.085888        -0.356146        -1.369620
 O         3.309667        -1.742156         0.686621
 C         2.397762        -0.716654         1.123171
 H        -0.664312         0.666954        -0.044666
 H        -0.372935        -0.836092        -0.817542
 H        -0.308244        -0.753301         0.980520
 H         2.286445         1.943324        -0.378857
 H         1.857790         1.880951         1.403763
 H         3.946818         0.873983         1.831196
 H         5.064256        -0.726940         0.031866
 H         3.781030         0.684871        -1.662729
 H         3.713540        -0.960388        -2.350226
 H         1.724244        -1.027471         1.900326
