19
Iteration:  1277
 C        -0.053519        -0.038221        -0.128241
 C         1.544343        -0.021064        -0.063580
 C         2.139541         1.340607         0.543922
 C         3.279390         0.492190         1.066948
 C         4.033902        -0.542934         0.043302
 C         3.497842        -0.496868        -1.443236
 O         2.050807        -0.363193        -1.309209
 O         3.428836        -1.679190         0.667467
 C         2.421330        -0.765564         1.151249
 H        -0.366080         0.610911         0.720586
 H        -0.320810         0.323719        -1.007283
 H        -0.528718        -0.947935         0.158744
 H         2.574032         2.004495        -0.303449
 H         1.621239         1.978735         1.224420
 H         3.887956         0.785302         1.987308
 H         5.105161        -0.551429         0.109554
 H         3.812726         0.468789        -2.072849
 H         3.689063        -1.454601        -1.899237
 H         1.963014        -1.079198         2.109822
