19
Iteration:  1857charge 0 multiplicity 1
 C         0.113161        -0.044871         0.045265
 C         1.589050        -0.031435        -0.111133
 C         2.241340         1.284546         0.343344
 C         3.240128         0.439462         1.078432
 C         4.066237        -0.426489         0.089480
 C         3.487925        -0.313551        -1.410104
 O         2.125010        -0.490095        -1.307315
 O         3.251584        -1.716831         0.667315
 C         2.280606        -0.762707         1.121627
 H        -0.253398         0.133745         1.118949
 H        -0.302185         0.722011        -0.483548
 H        -0.278060        -1.000365        -0.265621
 H         2.609514         2.046070        -0.412501
 H         1.724119         1.779476         1.092202
 H         3.637070         0.981065         1.937052
 H         5.173435        -0.334092         0.111667
 H         3.473096         0.644708        -1.946605
 H         3.741927        -1.267366        -1.931612
 H         1.693435        -1.061486         1.940309
