19
Iteration:  1848
 C         0.089971        -0.092363         0.044651
 C         1.541143         0.042336        -0.084940
 C         2.259840         1.333013         0.345411
 C         3.228668         0.441430         1.048263
 C         4.068248        -0.434935         0.026825
 C         3.550572        -0.323576        -1.362053
 O         2.032681        -0.508029        -1.296301
 O         3.256693        -1.714645         0.663528
 C         2.312918        -0.743867         1.118494
 H        -0.232468         0.141019         1.011531
 H        -0.452602         0.506559        -0.664682
 H        -0.107312        -1.122451        -0.223211
 H         2.691527         2.070187        -0.383730
 H         1.682889         1.854648         1.146390
 H         3.787521         0.700585         1.977532
 H         5.082286        -0.550579         0.262703
 H         4.092154         0.564666        -1.782960
 H         3.955877        -1.065641        -2.006774
 H         1.711345        -1.123767         1.950178
