19
Iteration:   385
 C        -0.008577        -0.058294        -0.022686
 C         1.488222        -0.029966        -0.039045
 C         2.210468         1.276990         0.406937
 C         3.309282         0.411865         1.075933
 C         4.066813        -0.453991         0.057972
 C         3.522255        -0.370267        -1.366726
 O         1.989677        -0.404149        -1.358948
 O         3.435427        -1.649752         0.648600
 C         2.333868        -0.783170         1.112127
 H        -0.275717         0.058464         1.044961
 H        -0.442168         0.813644        -0.530083
 H        -0.339873        -0.866072        -0.607851
 H         2.483114         1.871729        -0.481885
 H         1.824013         1.780273         1.386789
 H         3.659731         0.668524         2.098842
 H         5.207102        -0.484038         0.169952
 H         3.847554         0.444365        -1.969710
 H         3.780903        -1.267411        -1.765714
 H         1.849602        -0.996002         2.126107
