19
Iteration:  1126charge 0 multiplicity 1
 C        -0.025067        -0.099171        -0.109632
 C         1.502253         0.014172        -0.027257
 C         2.257940         1.376361         0.348517
 C         3.305515         0.395816         1.038519
 C         4.054168        -0.498400         0.021376
 C         3.484040        -0.255847        -1.318244
 O         2.079021        -0.517667        -1.221776
 O         3.312006        -1.703372         0.636125
 C         2.389516        -0.751510         1.179221
 H        -0.459340         0.408530         0.780095
 H        -0.422709         0.569497        -0.951608
 H        -0.268633        -1.136913        -0.351267
 H         2.577844         2.078585        -0.425476
 H         1.692732         1.837538         1.146133
 H         3.904295         0.636843         1.913838
 H         5.083971        -0.716150         0.038119
 H         3.698565         0.757847        -1.599331
 H         3.919232        -0.899226        -2.083070
 H         1.860676        -1.103283         2.120998
