19
Iteration:  1912charge 0 multiplicity 1
 C         0.023621        -0.069422        -0.202809
 C         1.531653        -0.040748         0.003277
 C         2.195782         1.301731         0.479269
 C         3.399325         0.472459         1.080745
 C         3.984008        -0.573750        -0.031269
 C         3.457589        -0.373808        -1.333090
 O         2.007564        -0.415231        -1.235470
 O         3.386698        -1.643992         0.692624
 C         2.391159        -0.714348         1.158895
 H        -0.611414         0.021254         0.796825
 H        -0.184253         0.733214        -0.858877
 H        -0.303633        -0.963726        -0.760071
 H         2.426835         1.992036        -0.378848
 H         1.718481         1.915211         1.173231
 H         4.033581         0.731656         1.946325
 H         5.095414        -0.527038        -0.201976
 H         3.758052         0.511346        -1.948728
 H         3.600427        -1.249730        -2.066397
 H         1.825751        -1.162903         1.939186
