19
Iteration:  1326
 C        -0.051516        -0.105426        -0.064231
 C         1.521232         0.079788        -0.017897
 C         2.233345         1.428730         0.400925
 C         3.316466         0.446816         1.105286
 C         4.067723        -0.537445        -0.015273
 C         3.508448        -0.430149        -1.375160
 O         2.036731        -0.459387        -1.329468
 O         3.376550        -1.711588         0.695123
 C         2.364564        -0.700967         1.146003
 H        -0.490307        -0.213978         0.924105
 H        -0.496548         0.815608        -0.684605
 H        -0.299838        -1.076367        -0.581993
 H         2.549746         2.168316        -0.290485
 H         1.494555         1.860229         1.203355
 H         3.911984         0.605235         2.010388
 H         5.200961        -0.767748        -0.068974
 H         3.729168         0.549804        -1.717153
 H         3.940324        -1.264893        -2.028863
 H         1.789911        -1.036743         2.033731
