19
Iteration:    77charge 0 multiplicity 1
 C         0.077502        -0.196853        -0.077617
 C         1.508422         0.076732         0.013539
 C         2.219984         1.357562         0.401883
 C         3.332434         0.476869         0.974044
 C         4.004175        -0.562576         0.020645
 C         3.451860        -0.343094        -1.317586
 O         2.047936        -0.411929        -1.205581
 O         3.349708        -1.679313         0.609716
 C         2.353911        -0.739801         1.128515
 H        -0.496181        -0.103013         0.824406
 H        -0.291692         0.550283        -0.756837
 H        -0.028144        -1.169853        -0.499581
 H         2.359662         2.075427        -0.261598
 H         1.792485         1.866372         1.268260
 H         3.931248         0.845086         1.815793
 H         5.129783        -0.655913         0.070208
 H         3.840141         0.556195        -1.736829
 H         3.721929        -1.043602        -2.021965
 H         1.761600        -1.206481         1.918557
