19
Iteration:  3629
 C        -0.002686         0.016107        -0.149976
 C         1.509325        -0.026486        -0.032139
 C         2.251069         1.251168         0.444440
 C         3.282487         0.466964         1.115679
 C         3.993926        -0.428075         0.014175
 C         3.385827        -0.361512        -1.392929
 O         2.064352        -0.494471        -1.256362
 O         3.386530        -1.700199         0.610161
 C         2.463946        -0.768409         1.207864
 H        -0.442328         0.431367         0.812963
 H        -0.306236         0.749731        -1.010984
 H        -0.570328        -0.899605        -0.248115
 H         2.586843         1.936007        -0.387596
 H         1.595231         1.736771         1.293654
 H         4.075638         0.870635         1.759129
 H         5.111325        -0.494450         0.030279
 H         3.750056         0.513056        -1.845092
 H         3.845235        -1.251138        -1.876474
 H         1.997653        -1.200356         2.132710
