19
Iteration:  3957charge 0 multiplicity 1
 C         0.039535        -0.016089        -0.106735
 C         1.511106        -0.049664        -0.008537
 C         2.222495         1.265335         0.505429
 C         3.387259         0.430356         1.040712
 C         4.007271        -0.462826         0.033174
 C         3.392588        -0.283738        -1.399759
 O         2.033107        -0.438268        -1.323984
 O         3.386219        -1.719492         0.647079
 C         2.380466        -0.775495         1.140073
 H        -0.464759         0.568964        -0.970916
 H        -0.433770        -1.090127        -0.150275
 H        -0.274119         0.411122         0.823049
 H         2.548572         2.078559        -0.147891
 H         1.642002         1.632519         1.331981
 H         4.050969         0.784780         1.983162
 H         5.133907        -0.611777         0.129269
 H         3.587189         0.651631        -1.834396
 H         3.817893        -1.029752        -2.081378
 H         1.858974        -1.090756         2.098094
