19
Iteration:  4824charge 0 multiplicity 1
 C        -0.082153         0.096278        -0.123691
 C         1.527013         0.013720        -0.037959
 C         2.164213         1.254770         0.412577
 C         3.378068         0.401816         1.167000
 C         4.010282        -0.461333         0.060222
 C         3.449241        -0.321218        -1.350904
 O         1.991558        -0.498198        -1.230286
 O         3.442508        -1.753126         0.511149
 C         2.460120        -0.811864         1.194015
 H        -0.272954         1.054774        -0.552988
 H        -0.244082        -0.780236        -0.809743
 H        -0.610986         0.093717         0.880410
 H         2.470514         1.964089        -0.360979
 H         1.563299         1.874025         1.057078
 H         4.036537         0.963323         1.892926
 H         5.116825        -0.497732         0.069286
 H         3.562071         0.777836        -1.737436
 H         3.893255        -1.000545        -2.064280
 H         2.122767        -1.425000         2.083791
