19
Iteration:    33charge 0 multiplicity 1
 C        -0.023286        -0.055885        -0.068588
 C         1.509158         0.003862        -0.070514
 C         2.147351         1.249014         0.513041
 C         3.272737         0.448699         0.988535
 C         4.011344        -0.468124         0.045058
 C         3.472153        -0.574092        -1.365806
 O         2.051486        -0.217185        -1.398384
 O         3.487206        -1.625193         0.713323
 C         2.403710        -0.813818         1.166218
 H        -0.324662        -0.037590         0.946965
 H        -0.638395         0.662917        -0.551423
 H        -0.313067        -1.071878        -0.340289
 H         2.297362         1.948967        -0.170979
 H         1.589545         1.690670         1.340071
 H         4.007772         0.928126         1.669913
 H         5.140497        -0.408879         0.084000
 H         3.977590         0.116305        -1.981861
 H         3.660775        -1.509940        -1.795553
 H         1.932947        -1.227738         2.066566
