19
Iteration:  1632
 C         0.108839        -0.162550         0.001566
 C         1.542132         0.053048        -0.092020
 C         2.235156         1.383950         0.400700
 C         3.294092         0.444706         1.041373
 C         4.006160        -0.598066         0.095689
 C         3.473131        -0.426431        -1.326381
 O         2.055483        -0.321641        -1.328895
 O         3.358353        -1.695424         0.711238
 C         2.294429        -0.725488         1.038412
 H        -0.314229         0.398795         0.779627
 H        -0.383608         0.123802        -1.008003
 H        -0.238829        -1.177646         0.259686
 H         2.405682         2.038371        -0.401465
 H         1.584981         1.869355         1.174262
 H         4.036418         0.795007         1.822164
 H         5.112145        -0.547925         0.162233
 H         3.792460         0.661616        -1.750153
 H         3.795439        -1.235232        -2.079295
 H         1.606036        -1.201424         1.817632
