19
Iteration:  2921charge 0 multiplicity 1
 C        -0.010469        -0.025773        -0.121554
 C         1.522168         0.000947        -0.009766
 C         2.211760         1.266437         0.391272
 C         3.333081         0.447110         0.990965
 C         4.078418        -0.519264         0.084807
 C         3.428492        -0.309353        -1.275065
 O         2.019400        -0.457212        -1.255937
 O         3.405051        -1.717624         0.608100
 C         2.379881        -0.791562         1.148883
 H        -0.338832        -0.008223         0.888690
 H        -0.253648         1.033078        -0.567624
 H        -0.507222        -0.802081        -0.614981
 H         2.494773         2.016735        -0.378950
 H         1.647552         1.888259         1.124853
 H         3.849235         0.805430         1.891476
 H         5.237388        -0.583571         0.147563
 H         3.624064         0.799919        -1.694678
 H         3.802756        -0.878435        -2.142094
 H         1.798339        -1.226170         2.003272
