19
Iteration:  1866charge 0 multiplicity 1
 C         0.067295        -0.006719        -0.007091
 C         1.594637        -0.081340        -0.061238
 C         2.218629         1.285676         0.348391
 C         3.288469         0.473412         1.137725
 C         3.990613        -0.462105         0.133690
 C         3.463970        -0.325066        -1.383481
 O         2.089624        -0.508400        -1.336319
 O         3.327448        -1.672715         0.635810
 C         2.312783        -0.766300         1.108508
 H        -0.013468         0.050507         1.194957
 H        -0.306380         0.927002        -0.462777
 H        -0.575622        -0.840957        -0.346383
 H         2.462658         1.956659        -0.499629
 H         1.490975         1.807197         0.902321
 H         3.925529         0.879442         1.916612
 H         5.145213        -0.599632         0.097489
 H         3.737111         0.597591        -1.987941
 H         4.003943        -1.140878        -2.039714
 H         1.684202        -1.076388         1.920738
