19
Iteration:  3938charge 0 multiplicity 1
 C         0.088530         0.004312        -0.069831
 C         1.549180        -0.049487         0.044073
 C         2.168669         1.297161         0.418659
 C         3.337667         0.461928         1.053576
 C         4.010998        -0.588894        -0.052984
 C         3.439752        -0.200419        -1.350306
 O         2.011054        -0.477590        -1.238099
 O         3.348825        -1.722545         0.587245
 C         2.416320        -0.806790         1.184623
 H         0.021566         0.251782        -1.153910
 H        -0.421420        -0.967959         0.031182
 H        -0.369207         0.841760         0.487434
 H         2.213964         1.949216        -0.415121
 H         1.629684         1.721354         1.273037
 H         3.848923         0.976591         1.823615
 H         5.073821        -0.622801         0.057662
 H         3.778379         0.894903        -1.389336
 H         3.925641        -0.828876        -2.186899
 H         1.870292        -1.356529         1.960082
