19
Iteration:  1276
 C        -0.055837        -0.042493        -0.131623
 C         1.543201        -0.014786        -0.063740
 C         2.148187         1.340152         0.546545
 C         3.284448         0.498709         1.057236
 C         4.025773        -0.542410         0.045940
 C         3.500510        -0.493877        -1.439110
 O         2.048234        -0.368745        -1.303473
 O         3.426444        -1.675968         0.666344
 C         2.417964        -0.770042         1.142669
 H        -0.378914         0.617898         0.746417
 H        -0.353667         0.331494        -1.042059
 H        -0.505112        -0.982232         0.184800
 H         2.570331         2.028886        -0.288644
 H         1.638691         1.963504         1.220336
 H         3.896837         0.773655         2.012278
 H         5.129306        -0.597415         0.141753
 H         3.793041         0.473043        -2.064930
 H         3.727204        -1.446143        -1.901848
 H         1.981773        -1.071581         2.094620
