19
Iteration:  3064
 C         0.123782         0.005727        -0.061239
 C         1.519623        -0.040580         0.016266
 C         2.266890         1.250345         0.413210
 C         3.335446         0.458764         1.079508
 C         3.993721        -0.445064         0.078036
 C         3.486154        -0.274741        -1.294312
 O         1.979394        -0.505686        -1.329712
 O         3.333715        -1.716873         0.567135
 C         2.372271        -0.772078         1.129087
 H        -0.422005         0.189376         0.898904
 H        -0.393219         0.620177        -0.864033
 H        -0.209452        -0.968261        -0.249364
 H         2.427614         1.852875        -0.526480
 H         1.559346         1.911078         1.046369
 H         3.677524         0.907172         2.059651
 H         5.175256        -0.541461         0.042715
 H         3.691034         0.612358        -1.741218
 H         4.017053        -1.000261        -1.985880
 H         1.756910        -1.136989         1.998671
