19
Iteration:  1406charge 0 multiplicity 1
 C         0.050510        -0.045240        -0.099210
 C         1.549999        -0.013364        -0.044629
 C         2.215048         1.335812         0.474867
 C         3.300169         0.463447         1.087534
 C         4.026860        -0.501057         0.071361
 C         3.386741        -0.475487        -1.317069
 O         1.993900        -0.387360        -1.395731
 O         3.419734        -1.663625         0.699462
 C         2.424546        -0.725092         1.074307
 H        -0.423990         0.283874         0.918567
 H        -0.425284         0.723341        -0.842583
 H        -0.271912        -1.070213        -0.461860
 H         2.427641         2.222197        -0.198587
 H         1.578595         1.617781         1.283360
 H         3.947660         0.590856         2.020413
 H         5.162581        -0.640532         0.112368
 H         3.808604         0.208903        -2.047272
 H         3.734174        -1.427686        -1.718319
 H         1.862411        -1.077700         1.911910
