19
Iteration:   928charge 0 multiplicity 1
 C         0.040876        -0.194090        -0.147307
 C         1.549694         0.006132         0.029294
 C         2.109849         1.382827         0.489270
 C         3.391122         0.527581         0.992833
 C         4.007461        -0.534083         0.018837
 C         3.518751        -0.502817        -1.369182
 O         2.007357        -0.293468        -1.257290
 O         3.325403        -1.718173         0.681623
 C         2.429110        -0.687676         1.092734
 H        -0.564468         0.270056         0.658003
 H        -0.107932         0.147442        -1.115574
 H        -0.249229        -1.229052        -0.009317
 H         2.365143         2.173317        -0.272527
 H         1.512550         1.861645         1.266616
 H         4.120406         0.681706         1.883362
 H         5.057962        -0.610108         0.144254
 H         4.030018         0.330039        -2.040607
 H         3.676152        -1.484153        -1.809660
 H         1.735541        -0.844277         2.035498
