19
Iteration:  1985charge 0 multiplicity 1
 C         0.024404        -0.132597         0.024332
 C         1.582813         0.015148        -0.064248
 C         2.299495         1.309245         0.345356
 C         3.306345         0.453386         1.104301
 C         3.952362        -0.476684         0.007173
 C         3.467496        -0.252811        -1.252452
 O         2.049048        -0.359462        -1.375904
 O         3.313809        -1.779402         0.646760
 C         2.356983        -0.804461         1.139905
 H        -0.303782         0.340729         1.007429
 H        -0.558815         0.147236        -0.826257
 H        -0.261102        -1.172329         0.177471
 H         2.833423         2.002696        -0.374351
 H         1.564222         1.991917         0.833120
 H         4.051002         0.880941         1.735126
 H         5.065919        -0.707529         0.142933
 H         3.838852         0.573245        -1.895717
 H         3.832518        -1.044240        -1.974982
 H         1.714948        -1.047339         1.993403
