19
Iteration:  1941charge 0 multiplicity 1
 C         0.051379        -0.188408        -0.060590
 C         1.542162         0.054976        -0.069597
 C         2.213498         1.366066         0.462324
 C         3.393871         0.504529         1.033171
 C         3.966176        -0.547127         0.067335
 C         3.527147        -0.346754        -1.389163
 O         2.056022        -0.380343        -1.291558
 O         3.226966        -1.753894         0.616718
 C         2.395520        -0.698165         1.185965
 H        -0.359677         0.158119         0.947176
 H        -0.494186         0.278858        -0.908538
 H        -0.133789        -1.268979        -0.156454
 H         2.333606         2.206124        -0.263386
 H         1.690315         1.745462         1.388497
 H         4.048568         0.833058         1.820275
 H         5.111072        -0.567757         0.046900
 H         3.945468         0.378751        -2.070957
 H         3.871344        -1.219818        -2.032437
 H         1.842386        -1.055799         2.077919
