19
Iteration:  3465
 C        -0.064016        -0.048723        -0.072584
 C         1.515481        -0.024087        -0.012939
 C         2.235229         1.374803         0.411671
 C         3.341717         0.457658         1.131179
 C         4.115247        -0.494499         0.094845
 C         3.459853        -0.381933        -1.381081
 O         2.020872        -0.448574        -1.259340
 O         3.407465        -1.723623         0.506661
 C         2.349541        -0.724034         1.195245
 H        -0.507232        -0.118164         0.879008
 H        -0.379731         0.882868        -0.598013
 H        -0.422523        -0.939238        -0.692532
 H         2.603064         1.987179        -0.458758
 H         1.590093         1.985255         1.092758
 H         3.841045         0.767806         2.074411
 H         5.175734        -0.849895         0.175104
 H         3.643410         0.461398        -2.003146
 H         3.815881        -1.100103        -2.089886
 H         1.817109        -1.154162         2.074395
