19
Iteration:  1627charge 0 multiplicity 1
 C         0.113328        -0.161780        -0.003871
 C         1.552006         0.012201        -0.133998
 C         2.252384         1.364051         0.401490
 C         3.307990         0.508097         1.051823
 C         4.011278        -0.569430         0.121985
 C         3.480200        -0.385877        -1.361030
 O         2.050541        -0.345509        -1.326604
 O         3.355563        -1.737026         0.681009
 C         2.247996        -0.738594         1.090928
 H        -0.264048         0.490804         0.885991
 H        -0.362831         0.136631        -0.890088
 H        -0.265690        -1.142400         0.307080
 H         2.375746         2.138747        -0.451027
 H         1.738380         1.912104         1.179026
 H         3.930841         0.839393         1.853127
 H         5.103317        -0.596812         0.111011
 H         3.810305         0.545696        -1.659853
 H         3.764029        -1.155631        -2.021121
 H         1.555163        -1.113589         1.810815
