19
Iteration:  1298charge 0 multiplicity 1
 C         0.066706         0.028346        -0.099314
 C         1.544019        -0.050703         0.051406
 C         2.169414         1.221759         0.381967
 C         3.304615         0.486426         1.047723
 C         3.998311        -0.422022         0.024522
 C         3.438462        -0.513403        -1.347753
 O         2.001714        -0.269569        -1.381141
 O         3.448515        -1.670704         0.722700
 C         2.379345        -0.867332         1.159476
 H        -0.484550         0.518952         0.792670
 H        -0.033714         0.573919        -0.992371
 H        -0.315910        -0.985051        -0.156739
 H         2.228653         2.050427        -0.411361
 H         1.567965         1.621299         1.136455
 H         3.949210         0.790968         1.959516
 H         5.069073        -0.610350         0.046513
 H         3.842060         0.334876        -2.044631
 H         3.766890        -1.499112        -1.637448
 H         1.861475        -1.264189         2.032124
