19
Iteration:  1951charge 0 multiplicity 1
 C         0.019698        -0.219697         0.016737
 C         1.553411         0.026918        -0.043936
 C         2.225026         1.359489         0.459087
 C         3.334453         0.453291         1.040307
 C         4.036889        -0.577744        -0.008286
 C         3.516005        -0.382292        -1.337365
 O         2.112351        -0.349399        -1.296786
 O         3.236194        -1.650441         0.605603
 C         2.344179        -0.684363         1.085936
 H        -0.430131         0.230206         0.895950
 H        -0.520097         0.264162        -0.831668
 H        -0.136881        -1.294149         0.030386
 H         2.538588         2.069258        -0.323665
 H         1.538867         1.853530         1.246076
 H         4.040810         0.832423         1.764022
 H         5.094500        -0.943136        -0.025191
 H         3.909667         0.620553        -1.567708
 H         3.825059        -1.323152        -1.829276
 H         1.670162        -0.935041         1.951623
