19
Iteration:  4169charge 0 multiplicity 1
 C         0.015558        -0.253372        -0.046727
 C         1.499152         0.073355        -0.002437
 C         2.269737         1.433155         0.529952
 C         3.370731         0.507056         0.993976
 C         4.011886        -0.609223        -0.011988
 C         3.500081        -0.315617        -1.317631
 O         2.046711        -0.385821        -1.288557
 O         3.265104        -1.775173         0.506086
 C         2.375123        -0.637781         1.189640
 H        -0.498558        -0.006531        -0.943872
 H         0.008140        -1.340613        -0.068848
 H        -0.651713         0.167090         0.823327
 H         2.592812         2.110613        -0.157086
 H         1.778030         1.896318         1.362104
 H         3.968702         0.747134         1.839356
 H         5.067897        -0.734716         0.029908
 H         4.082870         0.619273        -1.730428
 H         3.752177        -1.256160        -1.964125
 H         1.863002        -0.914736         2.111870
