19
Iteration:   461charge 0 multiplicity 1
 C         0.042247        -0.156220         0.011340
 C         1.529981         0.032302        -0.025949
 C         2.244423         1.327108         0.369449
 C         3.266383         0.425983         1.083548
 C         4.074118        -0.559696         0.085629
 C         3.487053        -0.268784        -1.336665
 O         2.056115        -0.384973        -1.348987
 O         3.289431        -1.712651         0.601127
 C         2.366251        -0.771057         1.104610
 H        -0.407135         0.233609         0.955975
 H        -0.488016         0.289819        -0.840052
 H        -0.112565        -1.211756         0.164143
 H         2.592858         2.021993        -0.375678
 H         1.604232         2.074662         0.965767
 H         3.876731         0.781395         1.925358
 H         5.174842        -0.707807         0.326205
 H         3.804785         0.799792        -1.794698
 H         3.894125        -0.946083        -2.095336
 H         1.867155        -1.052677         2.031398
