19
Iteration:  3100charge 0 multiplicity 1
 C        -0.052060        -0.137481        -0.018298
 C         1.521013         0.076827        -0.020028
 C         2.256322         1.334085         0.464640
 C         3.296880         0.442673         0.974757
 C         4.012244        -0.529966         0.018007
 C         3.560665        -0.351096        -1.373178
 O         2.065245        -0.371172        -1.355299
 O         3.342342        -1.730051         0.716164
 C         2.322760        -0.746764         1.106639
 H        -0.175123        -0.389880         1.098523
 H        -0.588907         0.701444        -0.283311
 H        -0.213815        -1.012194        -0.772220
 H         2.357868         1.952217        -0.442112
 H         1.706214         1.860387         1.288987
 H         3.899973         0.765479         1.768336
 H         5.126927        -0.477354         0.095998
 H         4.094591         0.487650        -1.783004
 H         3.816970        -1.256243        -1.829481
 H         1.901329        -0.990234         2.056925
