19
Iteration:  1075charge 0 multiplicity 1
 C        -0.017951        -0.213525         0.031982
 C         1.484985         0.065894        -0.069806
 C         2.234327         1.379462         0.405783
 C         3.281145         0.498509         1.080973
 C         4.046309        -0.580515         0.078484
 C         3.523403        -0.445332        -1.392000
 O         2.118881        -0.289440        -1.306726
 O         3.378684        -1.714361         0.647257
 C         2.279677        -0.694688         1.072213
 H        -0.313235         0.194386         0.909600
 H        -0.621986         0.273056        -0.786069
 H        -0.110957        -1.301709        -0.071430
 H         2.575543         1.873600        -0.458859
 H         1.657350         1.998784         1.171523
 H         3.788904         0.796244         1.938650
 H         5.200264        -0.684181         0.154388
 H         3.961500         0.474678        -1.921544
 H         3.674302        -1.440307        -1.869713
 H         1.710020        -1.154603         1.798413
