19
Iteration:  2067
 C         0.031495        -0.092458        -0.064853
 C         1.557288         0.026703        -0.008928
 C         2.280209         1.355507         0.396037
 C         3.311203         0.438288         1.082964
 C         4.012902        -0.499298         0.010327
 C         3.418938        -0.355259        -1.367431
 O         2.007758        -0.388126        -1.320674
 O         3.377990        -1.741552         0.713915
 C         2.390907        -0.787079         1.096096
 H        -0.438077        -0.298576         0.921480
 H        -0.504867         0.894239        -0.350523
 H        -0.212965        -0.991938        -0.705728
 H         2.483915         1.964055        -0.444838
 H         1.710554         1.875917         1.179423
 H         3.976441         0.731172         2.001460
 H         5.062343        -0.644034        -0.060956
 H         3.721418         0.676141        -1.687712
 H         3.792680        -1.155137        -2.005581
 H         1.666963        -0.936533         1.936936
