19
Iteration:  4416charge 0 multiplicity 1
 C         0.023807        -0.076564        -0.022273
 C         1.492170         0.018379        -0.096965
 C         2.259781         1.389549         0.494348
 C         3.347424         0.416964         1.109682
 C         4.019826        -0.463296         0.073337
 C         3.473019        -0.400847        -1.334100
 O         1.979748        -0.477784        -1.307108
 O         3.392965        -1.675025         0.534980
 C         2.402843        -0.752478         1.065178
 H        -0.525137         0.847809        -0.255771
 H        -0.501411        -0.818197        -0.565901
 H        -0.167770        -0.458641         1.006020
 H         2.542433         2.246205        -0.097321
 H         1.687085         1.700305         1.305938
 H         3.948721         0.587169         1.951889
 H         5.101571        -0.542404         0.100115
 H         3.658927         0.638186        -1.781420
 H         3.740970        -1.227314        -1.879003
 H         1.790131        -1.030473         1.896586
