19
Iteration:  4625
 C        -0.008455        -0.265711        -0.027902
 C         1.535406         0.049262        -0.051451
 C         2.229538         1.334773         0.466705
 C         3.437774         0.431695         1.001402
 C         4.073759        -0.603944         0.022231
 C         3.444057        -0.333744        -1.359716
 O         2.028011        -0.244747        -1.302251
 O         3.281854        -1.733079         0.690249
 C         2.341526        -0.676025         1.080231
 H        -0.485288         0.620513        -0.452176
 H        -0.285376        -1.158905        -0.635660
 H        -0.152559        -0.447159         1.144827
 H         2.567177         2.060831        -0.266334
 H         1.831236         1.769832         1.351277
 H         4.086268         0.775589         1.843721
 H         5.185169        -0.622336        -0.076417
 H         3.767340         0.607326        -1.774197
 H         3.719619        -1.123573        -2.005380
 H         1.625640        -0.988639         1.889000
