19
Iteration:  3216
 C         0.006599        -0.044234        -0.030714
 C         1.536861         0.020192        -0.036081
 C         2.242763         1.332304         0.425838
 C         3.277294         0.471655         1.089741
 C         4.059362        -0.449950         0.078638
 C         3.488937        -0.296002        -1.320014
 O         2.061371        -0.493493        -1.305462
 O         3.354913        -1.735807         0.548693
 C         2.386793        -0.804012         1.117128
 H        -0.582989         0.650998         0.637887
 H        -0.602788         0.238525        -1.025651
 H        -0.346071        -0.983145         0.252670
 H         2.579408         1.885327        -0.421710
 H         1.558448         1.914956         1.022050
 H         3.884888         0.609134         2.028275
 H         5.129030        -0.429714         0.146603
 H         3.672755         0.617868        -1.980948
 H         3.705200        -1.365704        -1.673550
 H         1.827449        -1.152183         2.030718
