19
Iteration:   176
 C         0.070592        -0.137561        -0.161119
 C         1.514953        -0.001129         0.015521
 C         2.147073         1.282805         0.524211
 C         3.331656         0.484654         1.023986
 C         4.031835        -0.474507        -0.010343
 C         3.423165        -0.449758        -1.381336
 O         2.036799        -0.307290        -1.293984
 O         3.362423        -1.722830         0.679258
 C         2.448059        -0.748740         1.171275
 H        -0.471160         0.012945         0.786240
 H        -0.261673         0.662577        -0.855515
 H        -0.197108        -1.017751        -0.607535
 H         2.299492         1.944970        -0.213897
 H         1.625839         1.781491         1.370660
 H         3.930216         0.999184         1.694707
 H         5.136345        -0.502075        -0.005218
 H         3.796342         0.389472        -2.055654
 H         3.635940        -1.370502        -1.779319
 H         1.974616        -0.808631         2.123334
