19
Iteration:  1647
 C        -0.024254        -0.154632        -0.084935
 C         1.513987         0.058787        -0.017762
 C         2.201983         1.358162         0.445890
 C         3.327084         0.455369         1.043770
 C         4.056189        -0.544181         0.015597
 C         3.496901        -0.443977        -1.379292
 O         2.043776        -0.294707        -1.367102
 O         3.349473        -1.695056         0.729453
 C         2.371717        -0.740207         1.152388
 H        -0.675057         0.247846         0.756326
 H        -0.376057         0.147153        -1.026588
 H        -0.076039        -1.271455        -0.033656
 H         2.612078         2.181877        -0.347257
 H         1.704687         1.977826         1.210221
 H         3.818555         0.584477         2.014096
 H         5.168865        -0.789049        -0.040366
 H         4.132165         0.324092        -1.850362
 H         3.685531        -1.482658        -1.858720
 H         1.851663        -0.868890         2.075915
