19
Iteration:  1192charge 0 multiplicity 1
 C         0.020641        -0.120165        -0.009255
 C         1.545016         0.031797        -0.077525
 C         2.158697         1.397608         0.432069
 C         3.334477         0.505579         1.074963
 C         4.068247        -0.565944         0.048505
 C         3.497604        -0.485446        -1.316887
 O         2.032074        -0.359855        -1.375155
 O         3.369856        -1.667460         0.700785
 C         2.375576        -0.756344         1.062222
 H        -0.426440        -0.052667         0.989403
 H        -0.488655         0.796547        -0.579902
 H        -0.282520        -0.989415        -0.629911
 H         2.283407         2.275238        -0.218245
 H         1.578772         1.611971         1.342795
 H         3.856303         0.807719         1.955260
 H         5.134510        -0.570666        -0.022459
 H         3.946746         0.268162        -1.874813
 H         3.725268        -1.451702        -1.767266
 H         1.706110        -1.259575         1.829604
