19
Iteration:  3295
 C         0.005645        -0.212962        -0.019672
 C         1.520018         0.060079         0.002376
 C         2.230939         1.336524         0.386982
 C         3.374951         0.441931         1.071004
 C         4.074584        -0.498651         0.048024
 C         3.524986        -0.389608        -1.332531
 O         2.052477        -0.382194        -1.262053
 O         3.284178        -1.680106         0.595809
 C         2.331275        -0.673919         1.082158
 H        -0.311125        -0.486228         1.034588
 H        -0.518274         0.670586        -0.301712
 H        -0.172229        -0.883352        -0.797257
 H         2.422633         1.937564        -0.497790
 H         1.747502         2.003785         1.122373
 H         3.752311         0.590524         2.025672
 H         5.186553        -0.684945         0.062392
 H         3.772101         0.429475        -2.013363
 H         3.750137        -1.296332        -1.946136
 H         1.699578        -0.961091         1.917773
