19
Iteration:  1201charge 0 multiplicity 1
 C         0.008366        -0.160416        -0.048713
 C         1.544352        -0.018061        -0.066607
 C         2.225388         1.338759         0.390387
 C         3.341484         0.480811         1.054467
 C         4.085362        -0.570939         0.099382
 C         3.490239        -0.407789        -1.291449
 O         2.009427        -0.340899        -1.307328
 O         3.305146        -1.678396         0.669742
 C         2.380758        -0.685977         0.998430
 H        -0.206524        -0.083263         1.084690
 H        -0.533707         0.622152        -0.463364
 H        -0.282045        -1.145815        -0.415480
 H         2.339581         2.145913        -0.467666
 H         1.669484         1.847555         1.181773
 H         3.787515         0.712125         2.075402
 H         5.137984        -0.623435         0.120928
 H         4.060680         0.368581        -1.807006
 H         3.672132        -1.241073        -1.924698
 H         1.873119        -0.928632         1.987780
