19
Iteration:  4244
 C        -0.026760         0.061000        -0.076089
 C         1.539798        -0.042803         0.028706
 C         2.205468         1.295820         0.431370
 C         3.311198         0.386738         1.114122
 C         4.089052        -0.423964         0.028674
 C         3.420795        -0.321745        -1.373924
 O         2.031288        -0.565362        -1.237748
 O         3.420701        -1.660638         0.569277
 C         2.353567        -0.764291         1.077422
 H        -0.306627         1.049831        -0.309564
 H        -0.414086        -0.588608        -0.759061
 H        -0.587688        -0.254862         0.858903
 H         2.580522         2.020981        -0.331001
 H         1.593519         1.864088         1.156695
 H         4.010946         0.560950         1.880185
 H         5.126959        -0.564438         0.140365
 H         3.586252         0.581947        -1.928068
 H         3.957679        -1.121374        -1.954861
 H         1.968115        -1.147710         1.984323
