19
Iteration:  2667
 C         0.043071        -0.210435        -0.039391
 C         1.588723         0.061976        -0.033184
 C         2.298913         1.388704         0.531326
 C         3.340643         0.454922         1.046724
 C         3.929059        -0.637026         0.067252
 C         3.457368        -0.357530        -1.351821
 O         2.021166        -0.275370        -1.436270
 O         3.293406        -1.705561         0.678562
 C         2.407033        -0.772727         1.127020
 H        -0.484802         0.177152         0.825053
 H        -0.513953         0.268797        -1.023561
 H        -0.020142        -1.331614         0.060140
 H         2.527802         2.056737        -0.369146
 H         1.720203         2.048108         1.174669
 H         3.889199         0.897361         1.902101
 H         5.102560        -0.649689         0.117044
 H         3.923086         0.529496        -1.793462
 H         3.740697        -1.157550        -2.097986
 H         1.766325        -1.195663         1.957683
