19
Iteration:  2424
 C         0.058030        -0.071674        -0.079536
 C         1.573703        -0.048619         0.021770
 C         2.199081         1.368579         0.415677
 C         3.298234         0.505115         1.142565
 C         4.023775        -0.579213         0.052881
 C         3.448147        -0.388695        -1.418288
 O         1.994811        -0.403529        -1.369882
 O         3.367226        -1.704546         0.648302
 C         2.386947        -0.737396         1.167875
 H        -0.244855        -0.049932         1.031396
 H        -0.292267         0.802204        -0.606607
 H        -0.328654        -0.949736        -0.696064
 H         2.611825         1.996970        -0.394275
 H         1.757565         2.012515         1.156217
 H         3.816053         1.006873         1.901712
 H         5.168023        -0.697219         0.089091
 H         3.945109         0.600494        -1.697585
 H         3.679354        -1.341328        -1.983140
 H         1.701680        -1.151998         1.914338
