19
Iteration:  1127charge 0 multiplicity 1
 C        -0.026210        -0.093870        -0.112723
 C         1.496823         0.016730        -0.030813
 C         2.260448         1.372882         0.348405
 C         3.309982         0.402977         1.034617
 C         4.049690        -0.496212         0.023202
 C         3.487920        -0.263982        -1.308600
 O         2.066164        -0.515564        -1.215006
 O         3.319655        -1.709347         0.636541
 C         2.392312        -0.752972         1.176599
 H        -0.449302         0.374664         0.748726
 H        -0.416253         0.587569        -0.973427
 H        -0.275477        -1.135716        -0.357268
 H         2.530306         2.064019        -0.390863
 H         1.710016         1.868762         1.157622
 H         3.873617         0.618823         1.890786
 H         5.107543        -0.700735         0.050041
 H         3.719613         0.761952        -1.634082
 H         3.945755        -0.877965        -2.090760
 H         1.892498        -1.115872         2.095230
