19
Iteration:  4644
 C         0.047460        -0.067924         0.024984
 C         1.561517        -0.003641        -0.023693
 C         2.266099         1.374068         0.443172
 C         3.264627         0.443677         1.109338
 C         3.935864        -0.491696         0.015455
 C         3.479748        -0.341233        -1.413841
 O         2.006987        -0.367073        -1.427241
 O         3.377610        -1.737428         0.654968
 C         2.402721        -0.821682         1.189719
 H        -0.573586         0.794094        -0.265359
 H        -0.103243        -0.826414        -0.666125
 H        -0.267072        -0.582845         0.865217
 H         2.574734         2.066441        -0.353057
 H         1.696110         1.859009         1.253434
 H         3.937740         0.642273         1.882159
 H         4.992209        -0.685665         0.131233
 H         3.902855         0.639313        -1.801048
 H         3.754659        -1.178434        -2.150481
 H         1.897376        -1.073675         2.121055
