19
Iteration:  4927
 C         0.038026        -0.278965        -0.056370
 C         1.564424         0.030603         0.010485
 C         2.312442         1.465116         0.528500
 C         3.377621         0.446345         1.106247
 C         3.978874        -0.591321         0.025472
 C         3.496880        -0.345475        -1.350932
 O         1.997615        -0.359587        -1.313825
 O         3.231321        -1.710875         0.499736
 C         2.379829        -0.657718         1.119167
 H        -0.389875         0.061279        -1.120912
 H        -0.047539        -1.340493         0.166416
 H        -0.430788         0.071607         0.867167
 H         2.554966         2.141517        -0.264990
 H         1.691732         1.848990         1.339532
 H         4.100319         0.838804         1.774574
 H         5.047706        -0.764165         0.187934
 H         4.105532         0.633594        -1.566240
 H         3.630589        -1.164711        -2.083399
 H         1.755225        -0.938755         1.934598
