19
Iteration:  3403charge 0 multiplicity 1
 C         0.024938        -0.236568        -0.032776
 C         1.522781         0.078317        -0.028920
 C         2.254544         1.395565         0.434474
 C         3.400823         0.441369         1.049014
 C         4.012004        -0.561535         0.045297
 C         3.460446        -0.396966        -1.305020
 O         2.051543        -0.285078        -1.320663
 O         3.297369        -1.706810         0.592376
 C         2.345156        -0.749762         1.132280
 H        -0.683734         0.360238         0.675683
 H        -0.347734        -0.112537        -1.137778
 H        -0.029861        -1.281053         0.298120
 H         2.503054         2.066898        -0.339181
 H         1.749742         1.907528         1.246971
 H         4.081624         0.753834         1.829586
 H         5.057565        -0.692609        -0.006418
 H         3.769133         0.617850        -1.711497
 H         3.811199        -1.259098        -1.905443
 H         1.720631        -1.050879         1.973920
