19
Iteration:  1247
 C         0.082135        -0.197881        -0.058916
 C         1.589345         0.023486        -0.050876
 C         2.254618         1.336492         0.401415
 C         3.382102         0.454331         1.064181
 C         4.050818        -0.577404         0.064915
 C         3.431061        -0.270986        -1.330734
 O         2.049526        -0.482918        -1.257332
 O         3.210768        -1.704636         0.585156
 C         2.333054        -0.628483         1.156504
 H        -0.428523         0.334882         0.708427
 H        -0.197563         0.291310        -1.085363
 H        -0.126753        -1.279037        -0.033225
 H         2.603526         2.032671        -0.372426
 H         1.723006         1.997255         1.150600
 H         3.932820         0.816828         1.866818
 H         5.133353        -0.652760         0.053756
 H         3.579057         0.706466        -1.685060
 H         3.864309        -0.950657        -2.082086
 H         1.734350        -0.896338         2.082141
