19
Iteration:  1987
 C         0.038425        -0.127649         0.011313
 C         1.571771         0.003116        -0.059158
 C         2.296927         1.309096         0.356016
 C         3.308500         0.461550         1.106142
 C         3.949371        -0.478157         0.006431
 C         3.439473        -0.261766        -1.258552
 O         2.063410        -0.367298        -1.378443
 O         3.314792        -1.762755         0.647258
 C         2.355937        -0.804806         1.141821
 H        -0.314016         0.399730         1.049959
 H        -0.512618         0.219394        -0.833750
 H        -0.268337        -1.185342         0.162703
 H         2.858931         1.979806        -0.370020
 H         1.590786         1.903125         0.843352
 H         4.053588         0.840780         1.770021
 H         5.087437        -0.649972         0.109486
 H         3.822520         0.502526        -1.829005
 H         3.816723        -0.988872        -2.009169
 H         1.750080        -1.078412         1.961245
