19
Iteration:  3983
 C        -0.018814        -0.127367        -0.003247
 C         1.522691         0.034311         0.007429
 C         2.222990         1.413526         0.454500
 C         3.312668         0.480410         1.133132
 C         4.056078        -0.511306         0.031710
 C         3.501339        -0.452934        -1.359655
 O         2.018989        -0.339398        -1.296945
 O         3.389786        -1.687725         0.551735
 C         2.351691        -0.800034         1.054228
 H        -0.575440         0.694408        -0.430639
 H        -0.183880        -0.985455        -0.604754
 H        -0.474621        -0.366214         1.049249
 H         2.757615         2.027113        -0.229978
 H         1.493808         1.944877         1.087335
 H         3.990520         0.736884         1.847956
 H         5.093358        -0.707634         0.196355
 H         3.876326         0.448948        -1.931898
 H         3.750167        -1.437252        -1.919248
 H         1.812038        -1.274868         1.845229
