19
Iteration:   543charge 0 multiplicity 1
 C         0.027783        -0.028829        -0.264877
 C         1.517035        -0.055861         0.093275
 C         2.184390         1.287826         0.486887
 C         3.363724         0.473993         1.116962
 C         4.048520        -0.563014        -0.090590
 C         3.466048        -0.327046        -1.430697
 O         1.981981        -0.447738        -1.223419
 O         3.379561        -1.679845         0.639086
 C         2.423801        -0.723308         1.257681
 H        -0.618818        -0.068545         0.593610
 H        -0.276601         0.808297        -0.862844
 H        -0.128366        -0.889382        -0.890672
 H         2.291852         2.023223        -0.345119
 H         1.663135         1.606649         1.292772
 H         3.964812         0.832225         1.926398
 H         5.081351        -0.678117        -0.017611
 H         3.536508         0.808107        -1.598947
 H         3.828702        -0.986849        -2.172261
 H         1.962138        -1.103718         2.211552
