19
Iteration:  3751
 C         0.038094        -0.166813        -0.060132
 C         1.536885        -0.042179        -0.009004
 C         2.229615         1.325101         0.425891
 C         3.400642         0.414930         1.098415
 C         4.021653        -0.487339         0.022450
 C         3.447425        -0.404432        -1.381007
 O         2.016780        -0.345865        -1.340748
 O         3.297066        -1.644774         0.661118
 C         2.417818        -0.688393         1.145440
 H        -0.362602         0.520940         0.772328
 H        -0.416173         0.225592        -1.059786
 H        -0.381081        -1.109932         0.167389
 H         2.613594         1.935900        -0.440297
 H         1.608470         1.891096         1.230322
 H         4.022311         0.929342         1.842356
 H         5.076216        -0.778681         0.194623
 H         3.837213         0.394779        -2.021979
 H         3.625797        -1.442026        -1.878730
 H         1.713176        -1.043760         1.968532
