19
Iteration:  1617charge 0 multiplicity 1
 C         0.022677        -0.120324         0.005837
 C         1.590355        -0.042512        -0.055058
 C         2.252652         1.338317         0.347108
 C         3.323522         0.521449         1.087125
 C         4.008811        -0.488926         0.098056
 C         3.520133        -0.286942        -1.348237
 O         2.053513        -0.444998        -1.406130
 O         3.278440        -1.759145         0.632477
 C         2.308601        -0.756535         1.174152
 H        -0.180267         0.638983         0.872786
 H        -0.562327         0.241386        -0.809525
 H        -0.138314        -1.177379         0.167161
 H         2.705550         2.061985        -0.351173
 H         1.724171         1.836757         1.136555
 H         3.700549         0.943137         1.980332
 H         5.032481        -0.757243         0.146708
 H         3.995151         0.621495        -1.802660
 H         3.851947        -1.076322        -1.919238
 H         1.699662        -0.966409         2.048748
