19
Iteration:  3021
 C         0.002346        -0.080655        -0.115001
 C         1.532912         0.029425        -0.000398
 C         2.172218         1.313012         0.496415
 C         3.366192         0.431708         1.082785
 C         4.069126        -0.529348         0.046523
 C         3.444908        -0.363224        -1.335341
 O         2.021276        -0.413643        -1.327822
 O         3.352699        -1.718420         0.615443
 C         2.399314        -0.739748         1.108554
 H        -0.608095         0.667282         0.485347
 H        -0.155489         0.249528        -1.147122
 H        -0.241084        -1.088316         0.220573
 H         2.254449         2.106600        -0.294778
 H         1.705052         1.839434         1.418310
 H         4.102363         0.780065         1.844639
 H         5.252562        -0.543051         0.028127
 H         3.737883         0.679217        -1.715252
 H         3.724399        -1.168637        -2.063677
 H         1.863014        -1.068279         2.024125
