19
Iteration:  3206
 C         0.032870        -0.034590         0.007035
 C         1.571480        -0.056770        -0.076425
 C         2.241838         1.255600         0.402128
 C         3.313645         0.457680         1.137034
 C         4.049106        -0.468217         0.104606
 C         3.446869        -0.315937        -1.310532
 O         2.028346        -0.505862        -1.292923
 O         3.342652        -1.617857         0.544034
 C         2.338318        -0.774215         1.072483
 H        -0.284757         0.798761         0.716565
 H        -0.263836         0.186771        -1.044151
 H        -0.408018        -0.925720         0.298339
 H         2.602893         1.941079        -0.358180
 H         1.578306         1.825997         1.068079
 H         3.778933         0.863366         2.049666
 H         5.146181        -0.618580         0.083168
 H         3.761492         0.638934        -1.884693
 H         3.986628        -1.096789        -1.960846
 H         1.699774        -1.320796         1.782801
