19
Iteration:  1523charge 0 multiplicity 1
 C         0.028898        -0.088409        -0.090102
 C         1.508045         0.019562        -0.018837
 C         2.146895         1.371883         0.439463
 C         3.311033         0.490672         0.998592
 C         4.037360        -0.553988         0.062819
 C         3.478213        -0.530326        -1.278023
 O         2.035237        -0.284306        -1.322059
 O         3.411224        -1.765876         0.640238
 C         2.376605        -0.689281         1.109471
 H        -0.142642        -0.109716         0.928468
 H        -0.605377         0.735789        -0.511797
 H        -0.173180        -1.039262        -0.542172
 H         2.272948         2.028322        -0.436851
 H         1.493437         1.881301         1.263632
 H         4.027306         0.826304         1.801951
 H         5.168587        -0.474240         0.012746
 H         3.928273         0.231054        -1.757035
 H         3.876930        -1.472342        -1.795233
 H         1.829392        -0.963855         2.068303
