19
Iteration:   626
 C         0.003717        -0.181851         0.062726
 C         1.519980         0.055062        -0.107167
 C         2.211714         1.317063         0.373041
 C         3.319619         0.409702         1.082776
 C         4.040300        -0.589866         0.094935
 C         3.486240        -0.305459        -1.314950
 O         2.080831        -0.331246        -1.373598
 O         3.349337        -1.680311         0.629113
 C         2.329733        -0.698150         1.085433
 H        -0.382132         0.152364         1.059481
 H        -0.520356         0.221949        -0.858727
 H        -0.170219        -1.315568         0.073452
 H         2.456016         2.060884        -0.435016
 H         1.630197         1.994914         1.115002
 H         3.908848         0.691501         2.037922
 H         5.180793        -0.786132         0.198054
 H         3.867595         0.551784        -1.765344
 H         3.927454        -1.256519        -1.978930
 H         1.747082        -1.122741         1.944385
