19
Iteration:  3432charge 0 multiplicity 1
 C         0.105592        -0.218056         0.054844
 C         1.566563        -0.040615        -0.066137
 C         2.253729         1.359793         0.423689
 C         3.350838         0.440549         1.047220
 C         3.980490        -0.602509         0.030239
 C         3.492436        -0.295222        -1.442472
 O         2.088503        -0.295137        -1.371444
 O         3.261693        -1.716863         0.685674
 C         2.267876        -0.707792         1.149617
 H        -0.225688         0.205692         0.944371
 H        -0.432372         0.222244        -0.756404
 H        -0.142116        -1.298203         0.041698
 H         2.458678         2.193383        -0.304563
 H         1.696699         1.843156         1.261986
 H         4.046116         0.753355         1.869939
 H         5.086139        -0.747554         0.120691
 H         3.695384         0.736057        -1.700948
 H         3.939407        -1.074722        -2.030453
 H         1.526723        -0.795593         1.962773
