19
Iteration:   694
 C         0.017013         0.007221        -0.087134
 C         1.532586         0.016429        -0.009162
 C         2.170931         1.319670         0.365966
 C         3.281719         0.439220         1.030165
 C         4.030501        -0.530986         0.099237
 C         3.421759        -0.293026        -1.343128
 O         2.047530        -0.494747        -1.233136
 O         3.474017        -1.703804         0.642950
 C         2.379224        -0.810825         1.105924
 H        -0.569448         0.051781         0.806839
 H        -0.271452         0.842116        -0.763210
 H        -0.309864        -0.887660        -0.634621
 H         2.422566         2.214004        -0.345209
 H         1.581778         1.806300         1.144517
 H         3.892676         0.876560         1.798706
 H         5.089906        -0.544775         0.179380
 H         3.713032         0.504618        -1.889507
 H         3.875123        -1.194640        -1.945354
 H         1.694823        -1.190226         1.958947
