19
Iteration:  3959charge 0 multiplicity 1
 C         0.025141        -0.027244        -0.107070
 C         1.498433        -0.035153        -0.022702
 C         2.229870         1.276791         0.509650
 C         3.386591         0.424459         1.061005
 C         4.028947        -0.472140         0.021695
 C         3.398747        -0.292986        -1.408775
 O         2.020539        -0.440116        -1.331802
 O         3.387635        -1.712477         0.644179
 C         2.385100        -0.765146         1.152873
 H        -0.457596         0.587128        -0.927149
 H        -0.393838        -1.079771        -0.170786
 H        -0.280098         0.380365         0.878147
 H         2.515289         2.054026        -0.143839
 H         1.697140         1.655993         1.367212
 H         3.914947         0.757155         1.977762
 H         5.104377        -0.585498         0.148630
 H         3.645937         0.663497        -1.821096
 H         3.870676        -1.100199        -2.060816
 H         1.882741        -1.117924         2.075142
