19
Iteration:  2990
 C         0.050275        -0.210060        -0.028228
 C         1.519786         0.025798         0.031776
 C         2.196060         1.365421         0.475335
 C         3.331322         0.402013         1.114929
 C         4.043712        -0.589505         0.036432
 C         3.487610        -0.406684        -1.420137
 O         2.087440        -0.245329        -1.394855
 O         3.286615        -1.689068         0.651372
 C         2.364282        -0.725813         1.148696
 H        -0.515787         0.371250         0.800230
 H        -0.315499         0.091305        -0.994068
 H        -0.271350        -1.309022         0.060692
 H         2.352222         1.856604        -0.480158
 H         1.714271         2.086038         1.160987
 H         4.007222         0.845687         1.825033
 H         5.126220        -0.610690         0.103365
 H         4.003472         0.560678        -1.894983
 H         3.629685        -1.125560        -2.210798
 H         1.831464        -1.066878         2.026831
