19
Iteration:  3210charge 0 multiplicity 1
 C         0.031582        -0.028874        -0.008677
 C         1.580174        -0.029543        -0.079432
 C         2.245017         1.263141         0.428417
 C         3.299979         0.487001         1.106852
 C         4.058357        -0.472964         0.101340
 C         3.453145        -0.294700        -1.311127
 O         2.040284        -0.504464        -1.294375
 O         3.340936        -1.655252         0.541737
 C         2.357091        -0.785090         1.089846
 H        -0.465720         0.714106         0.631911
 H        -0.396008         0.222840        -0.933896
 H        -0.488589        -0.997796         0.342627
 H         2.627039         1.891689        -0.425321
 H         1.519461         1.869057         1.033794
 H         3.781100         0.703743         2.034064
 H         5.207104        -0.551551         0.089198
 H         3.674480         0.585486        -1.921741
 H         3.875146        -1.189988        -1.752610
 H         1.729306        -1.281879         1.820767
