19
Iteration:   906charge 0 multiplicity 1
 C         0.074675        -0.184426        -0.229544
 C         1.497698         0.019590         0.091831
 C         2.222784         1.306955         0.418075
 C         3.333354         0.524066         1.003209
 C         4.025505        -0.563990        -0.030775
 C         3.508270        -0.448311        -1.402589
 O         2.012419        -0.329997        -1.230547
 O         3.309771        -1.640321         0.640604
 C         2.380707        -0.725229         1.293075
 H        -0.573661         0.130545         0.635411
 H        -0.108258         0.247413        -1.165986
 H        -0.170549        -1.241760        -0.195904
 H         2.286541         2.132425        -0.379122
 H         1.782769         1.798292         1.332359
 H         3.943661         1.008630         1.881321
 H         5.091468        -0.637555         0.023032
 H         3.946113         0.465741        -2.009825
 H         3.656788        -1.368919        -1.945468
 H         1.935144        -1.069330         2.352284
