19
Iteration:  3920
 C        -0.110879        -0.066187        -0.089273
 C         1.491151        -0.010932         0.040353
 C         2.266647         1.301014         0.455517
 C         3.352348         0.402498         1.080792
 C         4.115348        -0.514293         0.083621
 C         3.462922        -0.233819        -1.384058
 O         2.073707        -0.474928        -1.255988
 O         3.315562        -1.695762         0.507412
 C         2.396283        -0.781796         1.146274
 H        -0.435579         0.099524        -1.066486
 H        -0.440549        -0.968932         0.320794
 H        -0.566077         0.738031         0.572854
 H         2.594200         1.958080        -0.432158
 H         1.659107         1.967240         1.158451
 H         4.061695         0.638703         1.896796
 H         5.183086        -0.717039         0.014135
 H         3.665485         0.826258        -1.706460
 H         3.769534        -0.962832        -2.126190
 H         2.058625        -0.932877         2.151010
