19
Iteration:   382
 C        -0.007350        -0.063031        -0.008569
 C         1.485517        -0.002130        -0.045252
 C         2.210692         1.297080         0.373827
 C         3.303625         0.420330         1.116533
 C         4.073131        -0.472541         0.066241
 C         3.534284        -0.357560        -1.345459
 O         1.990747        -0.404473        -1.376491
 O         3.444809        -1.674448         0.636644
 C         2.317835        -0.787293         1.127941
 H        -0.193317         0.009756         1.068471
 H        -0.506612         0.802240        -0.435242
 H        -0.383964        -0.913834        -0.522451
 H         2.386821         1.891788        -0.446592
 H         1.764348         1.755649         1.215828
 H         3.705909         0.653901         2.001364
 H         5.156112        -0.506692         0.091966
 H         3.864442         0.520678        -2.004401
 H         3.815605        -1.342774        -1.759313
 H         1.873771        -0.946826         2.006116
