19
Iteration:  2364
 C         0.070479        -0.137271        -0.043732
 C         1.575301         0.005546         0.019911
 C         2.221106         1.349914         0.451114
 C         3.308933         0.451743         1.074854
 C         3.935977        -0.513906         0.003043
 C         3.549078        -0.378838        -1.449982
 O         2.097908        -0.427338        -1.339763
 O         3.230357        -1.702515         0.624111
 C         2.370058        -0.692783         1.211203
 H        -0.262591         0.087177         0.930027
 H        -0.463710         0.632226        -0.701398
 H        -0.193456        -1.167124        -0.128009
 H         2.442577         2.128566        -0.352558
 H         1.677260         1.894016         1.346554
 H         4.037729         0.790419         1.940765
 H         4.970764        -0.591072         0.057093
 H         3.920619         0.498125        -2.068242
 H         3.903168        -1.159198        -2.089878
 H         1.804978        -0.971253         2.121943
