19
Iteration:  1576
 C         0.035514        -0.047290        -0.120209
 C         1.506356         0.020180        -0.024996
 C         2.260057         1.364326         0.362578
 C         3.279700         0.477100         1.038238
 C         4.078471        -0.506535         0.076687
 C         3.423027        -0.293326        -1.323888
 O         2.020957        -0.518221        -1.218320
 O         3.335888        -1.757095         0.652081
 C         2.442017        -0.770549         1.105646
 H        -0.543941         0.133581         0.819693
 H        -0.308318         0.802246        -0.831032
 H        -0.210785        -1.011474        -0.630273
 H         2.409526         2.138176        -0.311168
 H         1.587183         1.788623         1.160218
 H         3.898660         0.858755         1.892681
 H         5.159918        -0.597136         0.068463
 H         3.621452         0.754112        -1.903523
 H         3.882478        -1.162399        -1.830571
 H         1.956457        -1.154213         2.065614
