19
Iteration:  3261charge 0 multiplicity 1
 C         0.103785        -0.213794        -0.113234
 C         1.573855         0.047613        -0.056103
 C         2.155881         1.311476         0.462450
 C         3.432082         0.465588         1.006793
 C         3.998230        -0.522412         0.033221
 C         3.450090        -0.385872        -1.407598
 O         1.988430        -0.290074        -1.355369
 O         3.262619        -1.785205         0.742352
 C         2.442378        -0.652655         1.205077
 H        -0.522407        -0.163214         0.842015
 H        -0.329230         0.578679        -0.731164
 H        -0.147009        -1.139211        -0.511378
 H         2.257431         2.117888        -0.232415
 H         1.697877         1.646850         1.392631
 H         3.942104         0.747854         1.889473
 H         5.076276        -0.656059        -0.069088
 H         3.784804         0.597424        -1.754899
 H         3.919840        -1.252627        -1.920654
 H         1.889401        -0.791321         2.140901
