19
Iteration:  2875
 C         0.097646        -0.025624        -0.081746
 C         1.564237        -0.073564        -0.017028
 C         2.190895         1.299104         0.473496
 C         3.314236         0.463857         1.107579
 C         4.006371        -0.482395         0.025237
 C         3.476608        -0.402336        -1.310388
 O         1.975285        -0.389816        -1.290120
 O         3.351793        -1.648596         0.581191
 C         2.371000        -0.802329         1.107819
 H        -0.282427         0.244318         0.857121
 H        -0.152740         0.630679        -0.985416
 H        -0.188041        -1.030878        -0.378619
 H         2.285360         2.088994        -0.327894
 H         1.550266         1.818564         1.190505
 H         4.037194         0.785743         1.867551
 H         5.161533        -0.555306         0.112631
 H         3.973708         0.487327        -1.896684
 H         3.825754        -1.294038        -1.908604
 H         1.763994        -1.201725         1.959539
