19
Iteration:  3567
 C         0.142747        -0.320287         0.036332
 C         1.521900         0.067007        -0.005759
 C         2.335971         1.353559         0.460731
 C         3.353208         0.431985         1.134046
 C         4.017669        -0.544583         0.034772
 C         3.509925        -0.354417        -1.407064
 O         2.057028        -0.329951        -1.424085
 O         3.172364        -1.651395         0.607379
 C         2.290268        -0.675193         1.133253
 H        -0.329288         0.364015         0.836303
 H        -0.315464        -0.067068        -0.978706
 H         0.062569        -1.333346         0.297194
 H         2.574707         1.868212        -0.474320
 H         1.737161         1.938595         1.191551
 H         3.934655         0.855578         1.972836
 H         5.116009        -0.626014         0.158248
 H         3.686723         0.727644        -1.785303
 H         3.570476        -1.357813        -1.975172
 H         1.691947        -1.079826         1.989006
