19
Iteration:  4551
 C        -0.134605        -0.023755        -0.016868
 C         1.486443        -0.004880        -0.102033
 C         2.300508         1.375388         0.498247
 C         3.357758         0.419968         1.062894
 C         4.056078        -0.495468         0.046133
 C         3.472312        -0.265905        -1.354306
 O         1.996702        -0.438394        -1.325372
 O         3.468591        -1.782500         0.628167
 C         2.375762        -0.853327         1.085266
 H        -0.589307         0.068204        -0.985044
 H        -0.438235        -0.916214         0.645257
 H        -0.467810         0.848441         0.685847
 H         2.427421         1.987650        -0.421469
 H         1.574675         1.814303         1.218490
 H         4.059226         0.785517         1.926894
 H         5.169586        -0.486879         0.068983
 H         3.678286         0.820236        -1.687069
 H         3.880368        -0.976610        -2.089972
 H         1.758367        -1.163328         1.962561
