19
Iteration:  3104charge 0 multiplicity 1
 C        -0.011460        -0.175449        -0.001037
 C         1.535033         0.085451        -0.016654
 C         2.230315         1.318589         0.463763
 C         3.284801         0.460047         0.990491
 C         4.044067        -0.551089         0.051336
 C         3.535462        -0.357484        -1.356568
 O         2.023860        -0.368499        -1.379469
 O         3.332964        -1.706876         0.702173
 C         2.329505        -0.726329         1.079960
 H        -0.215945        -0.415042         0.990663
 H        -0.607675         0.751468        -0.422347
 H        -0.180462        -0.894407        -0.839888
 H         2.382951         2.054959        -0.330012
 H         1.859558         1.778998         1.344785
 H         4.041235         0.743477         1.792295
 H         5.083119        -0.580067         0.159544
 H         4.208429         0.487063        -1.908632
 H         3.834553        -1.362924        -1.804686
 H         1.969741        -0.920923         2.122553
