19
Iteration:  3740charge 0 multiplicity 1
 C         0.039319        -0.231048        -0.069320
 C         1.575220         0.020275        -0.028030
 C         2.300239         1.375413         0.502163
 C         3.380320         0.585369         1.126320
 C         4.002859        -0.581253         0.015221
 C         3.465002        -0.478376        -1.383592
 O         1.968773        -0.353121        -1.356914
 O         3.278013        -1.658769         0.642338
 C         2.360208        -0.710653         1.147871
 H        -0.511560         0.165157         0.857748
 H        -0.366770         0.303458        -1.033681
 H        -0.113758        -1.285534        -0.173322
 H         2.523539         2.120101        -0.339125
 H         1.653842         2.012738         1.246835
 H         4.195480         0.811025         1.839489
 H         5.117598        -0.659184        -0.129885
 H         3.889776         0.414874        -1.860558
 H         3.789401        -1.392110        -2.028478
 H         1.854044        -0.973747         2.133260
