19
Iteration:  4196
 C         0.119255        -0.101006         0.002600
 C         1.551870        -0.040006        -0.028206
 C         2.224088         1.222509         0.439527
 C         3.353221         0.490873         1.067084
 C         4.018476        -0.509373         0.018690
 C         3.434484        -0.316936        -1.423049
 O         1.981789        -0.343095        -1.358944
 O         3.376718        -1.741274         0.695722
 C         2.322903        -0.713287         1.111581
 H        -0.239447         0.817780        -0.610446
 H        -0.379978        -1.064423        -0.430193
 H        -0.297400         0.075939         0.966948
 H         2.452081         2.043521        -0.381760
 H         1.653527         1.720401         1.279688
 H         3.755861         0.692014         2.118327
 H         5.157809        -0.632814         0.054146
 H         3.929610         0.564955        -1.799602
 H         3.695749        -1.125705        -2.043101
 H         1.708532        -1.056522         2.001719
