19
Iteration:   424charge 0 multiplicity 1
 C         0.075254        -0.066129        -0.218261
 C         1.495209         0.036812         0.018502
 C         2.162835         1.326775         0.546256
 C         3.337596         0.460334         1.006595
 C         4.058729        -0.541277         0.055675
 C         3.421114        -0.322683        -1.388431
 O         1.994351        -0.470686        -1.253815
 O         3.346810        -1.713919         0.596288
 C         2.485104        -0.724815         1.222818
 H        -0.614083         0.192290         0.618443
 H        -0.206536         0.517715        -1.123255
 H        -0.062212        -1.164492        -0.496702
 H         2.307939         2.135333        -0.203284
 H         1.690109         1.709888         1.396955
 H         3.832727         0.789710         1.918082
 H         5.097929        -0.640885         0.073748
 H         3.626374         0.713501        -1.824641
 H         3.723747        -1.206364        -2.143875
 H         2.178132        -1.043961         2.195343
