19
Iteration:  2413
 C        -0.076665        -0.122274        -0.074680
 C         1.505753         0.022380        -0.026366
 C         2.278126         1.376700         0.457776
 C         3.325321         0.446722         1.048678
 C         4.043698        -0.530646         0.008641
 C         3.488026        -0.414112        -1.376395
 O         2.042457        -0.327204        -1.339172
 O         3.365758        -1.711956         0.723805
 C         2.373792        -0.775436         1.188916
 H        -0.822362        -0.205104         0.812759
 H        -0.312659         0.798212        -0.570803
 H        -0.198488        -1.080770        -0.671781
 H         2.658848         1.823373        -0.461538
 H         1.642863         1.975301         1.082510
 H         4.028638         0.752680         1.761354
 H         5.193643        -0.629578        -0.016939
 H         3.724498         0.484401        -2.048366
 H         3.856880        -1.225604        -2.094937
 H         1.903150        -1.024575         2.146932
