19
Iteration:  4022
 C        -0.016598        -0.200316         0.004838
 C         1.526745         0.000751        -0.020298
 C         2.219671         1.324883         0.495065
 C         3.408678         0.525725         1.040916
 C         3.986381        -0.655863         0.086331
 C         3.477399        -0.340687        -1.457467
 O         2.077870        -0.305585        -1.390944
 O         3.293802        -1.715464         0.670933
 C         2.409822        -0.696505         1.146428
 H        -0.680152         0.719299        -0.062345
 H        -0.298013        -0.868841        -0.882905
 H        -0.233360        -0.717161         0.870642
 H         2.402462         2.064066        -0.360957
 H         1.654541         1.925540         1.233346
 H         4.025964         0.898122         1.991502
 H         5.114479        -0.712255         0.103180
 H         3.884422         0.707252        -1.745573
 H         3.813040        -0.960342        -2.271137
 H         1.689352        -1.134463         1.899384
