19
Iteration:  1612
 C         0.013033        -0.088280         0.018018
 C         1.558961        -0.031379        -0.033113
 C         2.264569         1.314075         0.334417
 C         3.304178         0.469488         1.106231
 C         3.999356        -0.480384         0.081106
 C         3.541363        -0.261223        -1.331007
 O         2.073558        -0.478037        -1.418312
 O         3.232430        -1.721670         0.623344
 C         2.380462        -0.744242         1.172986
 H        -0.298097         0.448569         0.875459
 H        -0.558131         0.280054        -0.885510
 H        -0.256748        -1.163615         0.184169
 H         2.749909         2.019076        -0.418062
 H         1.551945         1.834600         1.046336
 H         3.816004         0.933045         2.011019
 H         5.110704        -0.714254         0.189905
 H         3.841859         0.666612        -1.847795
 H         4.009973        -1.151324        -1.937770
 H         1.854232        -1.017988         2.117748
