19
Iteration:  3713
 C         0.070832        -0.245991        -0.091403
 C         1.550120         0.067408        -0.010386
 C         2.229004         1.380179         0.426597
 C         3.397857         0.454452         0.963480
 C         4.047779        -0.593649         0.002015
 C         3.483617        -0.388429        -1.357055
 O         2.037396        -0.333013        -1.200284
 O         3.213195        -1.677611         0.702004
 C         2.324364        -0.685734         1.107990
 H        -0.174282        -0.438918         0.905340
 H        -0.582380         0.462826        -0.439266
 H        -0.047631        -1.161285        -0.756216
 H         2.324457         2.068258        -0.377064
 H         1.850610         1.940241         1.180062
 H         4.247641         0.659156         1.608274
 H         5.118736        -0.733494        -0.030582
 H         3.890711         0.564569        -1.968352
 H         3.684342        -1.254634        -1.911385
 H         1.892467        -0.711434         2.078259
