19
Iteration:   158charge 0 multiplicity 1
 C        -0.029501        -0.079355        -0.102851
 C         1.506856        -0.095033         0.015057
 C         2.198675         1.297462         0.461341
 C         3.363836         0.475235         1.108208
 C         4.048136        -0.485663         0.041620
 C         3.472279        -0.481881        -1.380284
 O         2.003947        -0.294890        -1.385469
 O         3.447030        -1.580758         0.632626
 C         2.386130        -0.759993         1.188211
 H        -0.567565         0.237723         0.865031
 H        -0.474886         0.425649        -1.002012
 H        -0.396408        -1.125685        -0.342734
 H         2.359452         2.223585        -0.247445
 H         1.602332         1.563856         1.301844
 H         4.047686         0.663563         1.982509
 H         5.107821        -0.637898         0.032404
 H         3.932239         0.278740        -1.950046
 H         3.483181        -1.618529        -1.717603
 H         1.802771        -1.358544         1.951476
