19
Iteration:  3058
 C         0.059459         0.028067        -0.074411
 C         1.558755        -0.026151        -0.011844
 C         2.232631         1.273559         0.401004
 C         3.343356         0.435804         1.090460
 C         3.989979        -0.379752         0.074272
 C         3.440961        -0.314896        -1.325572
 O         2.037434        -0.528326        -1.294417
 O         3.339065        -1.722424         0.562323
 C         2.350409        -0.797224         1.155432
 H        -0.363046         0.365375         0.906574
 H        -0.412283         0.437665        -0.945846
 H        -0.251056        -1.087607        -0.266124
 H         2.601967         1.962510        -0.354312
 H         1.806356         1.834699         1.206939
 H         3.954955         0.707690         1.935463
 H         5.020983        -0.458045         0.088223
 H         3.609007         0.784496        -1.802226
 H         4.025491        -0.966999        -1.939482
 H         1.739264        -1.127561         1.976542
