19
Iteration:  1207charge 0 multiplicity 1
 C         0.031203        -0.183727        -0.032115
 C         1.507027         0.001443        -0.052876
 C         2.251944         1.314369         0.373029
 C         3.338987         0.455250         1.022122
 C         4.068096        -0.541918         0.120502
 C         3.497664        -0.375091        -1.318941
 O         2.039824        -0.337251        -1.302265
 O         3.298431        -1.706559         0.640512
 C         2.346318        -0.656166         1.068539
 H        -0.200715        -0.245964         1.023146
 H        -0.552555         0.632686        -0.601914
 H        -0.324139        -1.206958        -0.273588
 H         2.515779         1.902759        -0.476603
 H         1.704558         1.980945         1.065297
 H         3.842397         0.733159         1.956126
 H         5.184018        -0.806506         0.228195
 H         3.843378         0.653718        -1.723488
 H         3.724242        -1.273076        -1.963503
 H         1.818963        -0.757619         1.993681
