19
Iteration:  4014charge 0 multiplicity 1
 C         0.052053        -0.204295         0.037813
 C         1.545593        -0.036677        -0.014453
 C         2.195313         1.313145         0.409458
 C         3.365127         0.446982         1.051888
 C         4.027238        -0.578357         0.015473
 C         3.520690        -0.345075        -1.388887
 O         2.024500        -0.243703        -1.394600
 O         3.265070        -1.680765         0.650965
 C         2.369153        -0.708484         1.171577
 H        -0.465557         0.783111        -0.068870
 H        -0.166110        -0.835208        -0.830690
 H        -0.287751        -0.769866         0.968631
 H         2.542897         2.056837        -0.211986
 H         1.487894         1.744141         1.086674
 H         4.050101         0.791877         1.818687
 H         5.066419        -0.820521         0.186766
 H         3.965167         0.513660        -1.711362
 H         3.865369        -1.205861        -2.020149
 H         1.866001        -1.026996         2.086666
