19
Iteration:  2031charge 0 multiplicity 1
 C        -0.077714         0.044211        -0.167635
 C         1.530105         0.000830        -0.007515
 C         2.183424         1.303141         0.516740
 C         3.356645         0.448834         1.020860
 C         4.001378        -0.470880         0.009504
 C         3.418391        -0.455526        -1.312426
 O         2.108811        -0.485819        -1.227422
 O         3.387661        -1.677709         0.560365
 C         2.450676        -0.779206         1.164594
 H        -0.502944         0.067124         0.927892
 H        -0.363202         0.867842        -0.746043
 H        -0.578781        -0.783264        -0.685499
 H         2.186620         2.183747        -0.188875
 H         1.801616         1.714230         1.387404
 H         3.875022         0.852179         1.844860
 H         5.148921        -0.470639         0.012100
 H         3.755647         0.559021        -1.765018
 H         3.818151        -1.221721        -2.037543
 H         2.028493        -1.175487         2.039590
