19
Iteration:  2367charge 0 multiplicity 1
 C         0.059049        -0.141897        -0.060706
 C         1.588527        -0.005048         0.042436
 C         2.196132         1.399749         0.447829
 C         3.329566         0.467861         1.084041
 C         3.924218        -0.518041        -0.011266
 C         3.541410        -0.385860        -1.446539
 O         2.080484        -0.423076        -1.339063
 O         3.215969        -1.709680         0.641402
 C         2.415394        -0.700097         1.179038
 H        -0.398201         0.080509         1.005599
 H        -0.313559         0.640563        -0.642011
 H        -0.112302        -1.214295        -0.223901
 H         2.472749         2.066024        -0.326512
 H         1.662088         1.775311         1.322099
 H         4.009298         0.706683         1.914699
 H         5.020876        -0.552818         0.161457
 H         4.071154         0.530463        -1.975261
 H         3.854824        -1.255187        -2.142123
 H         1.796961        -0.973713         2.052974
