19
Iteration:   914
 C         0.111239        -0.201958        -0.197243
 C         1.535049         0.013536         0.060619
 C         2.161962         1.368318         0.470424
 C         3.313448         0.476114         0.986606
 C         4.058744        -0.504533        -0.029318
 C         3.390140        -0.480657        -1.376113
 O         2.115594        -0.305451        -1.220655
 O         3.280090        -1.681030         0.669459
 C         2.395628        -0.720625         1.244876
 H        -0.504957         0.415111         0.466092
 H        -0.211218         0.189866        -1.137454
 H        -0.121757        -1.247769        -0.296272
 H         2.208383         1.972155        -0.411256
 H         1.775031         1.824603         1.281573
 H         3.986524         1.053300         1.627912
 H         5.099811        -0.632702        -0.032723
 H         3.772806         0.414791        -2.017729
 H         3.565621        -1.422569        -1.964136
 H         1.968138        -1.101447         2.199603
