19
Iteration:   214
 C        -0.011464        -0.176236        -0.046407
 C         1.523524        -0.020618        -0.043390
 C         2.294421         1.243530         0.410217
 C         3.370379         0.468876         1.033746
 C         4.070320        -0.475704         0.052315
 C         3.440584        -0.236425        -1.288106
 O         2.055470        -0.458042        -1.304080
 O         3.234349        -1.703150         0.612076
 C         2.373248        -0.635335         1.127613
 H        -0.330882        -0.501799         0.951112
 H        -0.585630         0.671713        -0.433149
 H        -0.143871        -1.251718        -0.533900
 H         2.671651         2.062844        -0.359464
 H         1.793015         1.814723         1.155273
 H         4.031950         0.888066         1.893283
 H         5.114363        -0.785593         0.010175
 H         3.818537         0.639804        -1.755150
 H         3.904347        -1.001609        -2.091418
 H         1.815670        -0.894261         2.087556
