19
Iteration:  1443charge 0 multiplicity 1
 C        -0.040589        -0.023053        -0.143125
 C         1.492635        -0.000462         0.028046
 C         2.183400         1.299157         0.452372
 C         3.320366         0.386313         1.000452
 C         4.025497        -0.527150         0.049566
 C         3.475703        -0.365261        -1.372082
 O         2.094168        -0.434711        -1.255994
 O         3.376183        -1.655446         0.635682
 C         2.420413        -0.733958         1.136229
 H        -0.499983         0.660399         0.718686
 H        -0.226185         0.343574        -1.111073
 H        -0.516451        -0.997181         0.082142
 H         2.517573         1.957709        -0.334029
 H         1.690365         1.875391         1.275224
 H         3.834120         0.724433         1.860982
 H         5.057807        -0.659989         0.017148
 H         3.802937         0.440253        -1.912231
 H         3.867169        -1.267819        -1.782609
 H         1.883784        -0.983255         2.098506
