19
Iteration:  1670charge 0 multiplicity 1
 C         0.029526        -0.162773        -0.220144
 C         1.584142        -0.014366         0.034405
 C         2.214452         1.304985         0.457102
 C         3.382102         0.495349         1.016216
 C         3.986590        -0.529230         0.054476
 C         3.420705        -0.481851        -1.334324
 O         2.025762        -0.314430        -1.260546
 O         3.299765        -1.623726         0.648446
 C         2.419570        -0.733287         1.173683
 H        -0.521404         0.079644         0.819388
 H        -0.203550         0.555139        -0.931812
 H        -0.284030        -1.177459        -0.498533
 H         2.510925         2.216530        -0.326385
 H         1.625566         1.792780         1.244349
 H         4.179427         0.949408         1.593197
 H         5.085091        -0.614684         0.257524
 H         3.928401         0.343926        -1.904092
 H         3.642333        -1.511412        -1.818880
 H         1.844706        -1.085173         1.990658
