19
Iteration:  2830
 C         0.092190        -0.264815        -0.002749
 C         1.526319         0.058207        -0.030659
 C         2.299826         1.322584         0.387441
 C         3.395425         0.424912         1.043226
 C         3.999596        -0.649457         0.128339
 C         3.422790        -0.262716        -1.350447
 O         2.059183        -0.299008        -1.354908
 O         3.231598        -1.683076         0.633534
 C         2.318700        -0.698537         1.095585
 H        -0.451742         0.076673         0.874969
 H        -0.415968         0.214732        -0.865672
 H        -0.083032        -1.392610        -0.034358
 H         2.570547         2.163757        -0.341660
 H         1.859150         1.842330         1.247597
 H         3.897202         0.881432         1.909878
 H         5.101110        -0.876183         0.017685
 H         3.892505         0.771957        -1.601458
 H         3.994921        -0.921921        -2.079029
 H         1.782660        -1.126083         1.967655
