19
Iteration:  3930
 C         0.041033        -0.020527        -0.110446
 C         1.485435        -0.013736         0.108606
 C         2.164790         1.302241         0.410228
 C         3.344131         0.435249         1.056317
 C         4.080849        -0.594807         0.017941
 C         3.447546        -0.228931        -1.360499
 O         2.049265        -0.483266        -1.275046
 O         3.347043        -1.712211         0.530228
 C         2.421346        -0.779533         1.208847
 H        -0.271971         0.158671        -1.068477
 H        -0.422192        -0.885171         0.193035
 H        -0.375191         0.802865         0.558078
 H         2.416761         2.012048        -0.438767
 H         1.713049         1.928601         1.263419
 H         3.697014         0.797960         1.984384
 H         5.134296        -0.772400         0.101904
 H         3.573070         0.919237        -1.634312
 H         3.823121        -0.710702        -2.291092
 H         2.015068        -1.252841         2.081519
