19
Iteration:  4117charge 0 multiplicity 1
 C        -0.010906        -0.083230         0.008651
 C         1.572970        -0.046726        -0.064417
 C         2.251655         1.384790         0.473845
 C         3.321838         0.429208         1.071293
 C         4.040412        -0.506751         0.056381
 C         3.441445        -0.287503        -1.391533
 O         1.993642        -0.360215        -1.409306
 O         3.359692        -1.753692         0.689186
 C         2.439877        -0.819592         1.100621
 H        -0.494298         0.002543        -0.985207
 H        -0.351218        -1.157265         0.248562
 H        -0.453653         0.695416         0.711947
 H         2.416371         2.141950        -0.383192
 H         1.592775         1.757225         1.298590
 H         3.998110         0.622075         1.948164
 H         5.151540        -0.552342         0.269767
 H         3.773791         0.670277        -1.672440
 H         3.757345        -1.030106        -2.126027
 H         1.734542        -1.091657         1.954958
