19
Iteration:  1621charge 0 multiplicity 1
 C         0.060352        -0.137782         0.016173
 C         1.588001        -0.031757        -0.098439
 C         2.257115         1.348777         0.365040
 C         3.319315         0.537626         1.062821
 C         4.008660        -0.513954         0.115734
 C         3.491775        -0.325015        -1.351857
 O         2.045857        -0.404139        -1.371715
 O         3.318444        -1.766914         0.647372
 C         2.264532        -0.752906         1.147419
 H        -0.135554         0.558692         0.772593
 H        -0.552991         0.246411        -0.904294
 H        -0.163039        -1.199035         0.227287
 H         2.534259         2.086165        -0.343775
 H         1.784112         1.915245         1.218766
 H         3.787971         0.945938         2.020845
 H         5.104431        -0.728983         0.112520
 H         4.041393         0.701374        -1.772630
 H         3.814863        -1.197095        -2.036978
 H         1.540592        -1.016460         2.013377
