19
Iteration:   884charge 0 multiplicity 1
 C        -0.047782        -0.165865        -0.102784
 C         1.512851         0.006784        -0.061493
 C         2.263251         1.371566         0.439223
 C         3.387425         0.485132         1.061421
 C         4.087774        -0.510701         0.043156
 C         3.433645        -0.368022        -1.298405
 O         2.060403        -0.474476        -1.328944
 O         3.305809        -1.700890         0.693429
 C         2.397278        -0.683362         1.103749
 H        -0.579783         0.002980         0.897787
 H        -0.400758         0.486834        -0.856641
 H        -0.413113        -1.170856        -0.353209
 H         2.434519         2.045488        -0.493980
 H         1.703913         2.003373         1.198949
 H         4.058384         0.862195         1.942381
 H         5.169496        -0.599870         0.057486
 H         3.658497         0.682563        -1.751479
 H         3.802796        -1.123807        -1.968694
 H         1.759187        -0.933799         2.083338
