19
Iteration:  3732
 C         0.082920        -0.243526        -0.057816
 C         1.542097         0.114126        -0.008794
 C         2.301276         1.440121         0.477672
 C         3.361611         0.544263         1.039613
 C         3.993462        -0.599164         0.024339
 C         3.424300        -0.477245        -1.419000
 O         2.011040        -0.370814        -1.327373
 O         3.293998        -1.713937         0.640853
 C         2.357946        -0.659126         1.192723
 H        -0.551422        -0.163283         0.827259
 H        -0.400854         0.300346        -0.865203
 H         0.117680        -1.354911        -0.504903
 H         2.517698         2.299503        -0.216449
 H         1.689869         1.898087         1.353309
 H         3.912273         0.794247         1.923859
 H         5.074556        -0.691504         0.012250
 H         3.879801         0.404863        -1.750209
 H         3.737126        -1.375746        -1.999596
 H         1.839867        -1.103230         2.024154
