19
Iteration:  1463
 C        -0.005160        -0.105283        -0.104229
 C         1.547958         0.004112        -0.019139
 C         2.324321         1.371573         0.326375
 C         3.364186         0.524992         1.089201
 C         4.104855        -0.579887         0.080370
 C         3.484743        -0.309101        -1.312975
 O         1.986421        -0.465678        -1.279471
 O         3.283714        -1.733894         0.623435
 C         2.342840        -0.733388         1.138709
 H        -0.610809         0.459646         0.804554
 H        -0.399726         0.175251        -1.077279
 H        -0.301584        -1.185463         0.139200
 H         2.441876         2.249886        -0.342666
 H         1.684313         1.708552         1.084265
 H         4.104379         0.818186         1.818372
 H         5.165522        -0.724985         0.184929
 H         3.510379         0.751245        -1.439168
 H         3.825510        -0.815928        -2.151595
 H         1.757583        -1.243743         1.900865
