19
Iteration:  2585charge 0 multiplicity 1
 C        -0.008246        -0.027027        -0.043502
 C         1.528107         0.041381        -0.085614
 C         2.319162         1.372889         0.395404
 C         3.337786         0.404894         1.079088
 C         4.067675        -0.515874         0.066147
 C         3.450827        -0.292871        -1.282854
 O         1.994388        -0.538620        -1.315972
 O         3.398642        -1.720294         0.648922
 C         2.308264        -0.798063         1.077462
 H        -0.521455         0.010060         1.034458
 H        -0.449333         0.845893        -0.526346
 H        -0.489240        -0.870084        -0.637515
 H         2.674149         1.986002        -0.438742
 H         1.734070         1.882004         1.241586
 H         3.856600         0.950318         1.910694
 H         5.153985        -0.507995         0.021360
 H         3.597634         0.750670        -1.493665
 H         3.871643        -0.985174        -2.048288
 H         1.707210        -1.073775         1.939586
