19
Iteration:  4483charge 0 multiplicity 1
 C         0.005889        -0.207070        -0.127206
 C         1.541419         0.101659         0.052407
 C         2.256844         1.381083         0.551261
 C         3.420092         0.423196         1.034419
 C         4.034009        -0.565286        -0.029024
 C         3.480724        -0.341678        -1.451857
 O         1.988795        -0.394857        -1.255584
 O         3.322191        -1.684966         0.628355
 C         2.289987        -0.704059         1.118610
 H        -0.506222         0.448432        -0.823008
 H        -0.094704        -1.240692        -0.349034
 H        -0.333349        -0.233286         0.983315
 H         2.587064         2.055706        -0.195052
 H         1.821523         1.847829         1.375291
 H         4.067064         0.538344         1.887131
 H         5.114811        -0.612905         0.064302
 H         3.822956         0.712035        -1.788672
 H         3.742994        -1.068155        -2.135403
 H         1.912938        -1.140540         2.037596
