19
Iteration:  1101
 C         0.133040        -0.193741         0.030028
 C         1.566718        -0.008821        -0.084427
 C         2.275333         1.303160         0.393775
 C         3.324353         0.520662         1.098531
 C         3.962820        -0.508841         0.098382
 C         3.578286        -0.266799        -1.378651
 O         2.021694        -0.485055        -1.355470
 O         3.180272        -1.680732         0.600529
 C         2.340929        -0.692406         1.132041
 H        -0.153422         0.525571         0.942832
 H        -0.377981         0.292384        -0.741882
 H        -0.038242        -1.271977        -0.049370
 H         2.547196         1.937687        -0.594851
 H         1.698388         1.774716         1.200315
 H         3.929136         0.841732         2.071785
 H         4.990508        -0.810527         0.255493
 H         3.719698         0.768284        -1.543481
 H         4.068362        -0.974200        -2.070610
 H         1.664541        -1.191325         1.932464
