19
Iteration:  3558
 C         0.121641        -0.264809         0.044325
 C         1.610538         0.029998        -0.006154
 C         2.262216         1.424678         0.455657
 C         3.341004         0.532856         1.106326
 C         4.000752        -0.579786         0.064847
 C         3.437542        -0.369235        -1.344663
 O         2.052081        -0.335708        -1.346717
 O         3.197664        -1.707454         0.555585
 C         2.332554        -0.739964         1.056922
 H        -0.453940         0.134635         0.905777
 H        -0.348976         0.093646        -0.854651
 H        -0.073270        -1.381829         0.149418
 H         2.755551         1.882598        -0.416199
 H         1.664825         2.183077         0.931668
 H         3.835619         0.694662         2.077536
 H         5.109428        -0.597268         0.093227
 H         4.035935         0.404680        -1.890392
 H         3.926972        -1.122727        -2.029975
 H         1.734097        -0.921901         1.967134
