19
Iteration:  3107charge 0 multiplicity 1
 C         0.033081        -0.190010        -0.011700
 C         1.528461         0.071085        -0.023512
 C         2.207471         1.318858         0.449098
 C         3.304198         0.463613         1.013111
 C         4.049172        -0.561320         0.081102
 C         3.520285        -0.373777        -1.349776
 O         2.000765        -0.357145        -1.390290
 O         3.325045        -1.683595         0.683482
 C         2.346995        -0.708665         1.073732
 H        -0.354620        -0.494219         0.988028
 H        -0.553744         0.711332        -0.441064
 H        -0.166611        -0.821839        -0.788542
 H         2.430709         2.179090        -0.232914
 H         1.872222         1.770130         1.438192
 H         4.070283         0.741793         1.811300
 H         5.201085        -0.694859         0.209806
 H         4.111852         0.383636        -1.932503
 H         3.814415        -1.386481        -1.845043
 H         1.942461        -0.891179         2.118048
