19
Iteration:  3907
 C        -0.098944        -0.134564        -0.023928
 C         1.514053         0.020241        -0.035097
 C         2.360059         1.302480         0.460127
 C         3.399550         0.409148         1.102346
 C         4.006236        -0.458833        -0.012135
 C         3.518003        -0.290661        -1.308010
 O         2.030409        -0.432506        -1.256276
 O         3.312587        -1.685859         0.540614
 C         2.349638        -0.760545         1.108147
 H        -0.421186        -0.017845        -1.001933
 H        -0.442968        -1.066603         0.279792
 H        -0.631682         0.647882         0.582057
 H         2.664598         2.080775        -0.296016
 H         1.806556         1.842563         1.312744
 H         3.904630         0.758805         1.907826
 H         5.040578        -0.493364         0.104654
 H         3.854427         0.659373        -1.933932
 H         3.897966        -1.156869        -1.955229
 H         1.720106        -1.329271         1.758146
