19
Iteration:  4242
 C        -0.043858         0.075645        -0.064595
 C         1.537480        -0.042556         0.021215
 C         2.209354         1.291063         0.435895
 C         3.284911         0.370799         1.117050
 C         4.094915        -0.433258         0.028452
 C         3.446635        -0.312084        -1.391908
 O         2.033971        -0.563128        -1.225738
 O         3.441724        -1.666086         0.570823
 C         2.347274        -0.767808         1.076428
 H        -0.433418         1.090297        -0.300866
 H        -0.393850        -0.619292        -0.798413
 H        -0.582474        -0.229036         0.873351
 H         2.615561         2.019080        -0.393673
 H         1.609745         1.885693         1.177486
 H         3.976864         0.676947         1.880565
 H         5.179084        -0.550066         0.092961
 H         3.538600         0.541712        -2.006916
 H         3.911330        -1.133900        -1.900281
 H         1.913359        -1.122935         1.990802
