19
Iteration:  2477
 C        -0.026732        -0.043618        -0.065083
 C         1.580292        -0.020273        -0.015440
 C         2.217769         1.326379         0.332626
 C         3.344197         0.399246         1.118365
 C         4.060779        -0.539638         0.058721
 C         3.453649        -0.306136        -1.325816
 O         2.033348        -0.422426        -1.272230
 O         3.315885        -1.693117         0.590368
 C         2.390063        -0.767945         1.150907
 H        -0.503357         0.533075         0.846635
 H        -0.387317         0.240661        -0.985058
 H        -0.368702        -1.134049        -0.009590
 H         2.594899         2.041305        -0.390532
 H         1.610704         2.072523         0.879661
 H         3.916336         0.840195         1.931996
 H         5.169194        -0.731179         0.098222
 H         3.932946         0.643829        -1.645943
 H         3.856971        -1.062962        -2.089265
 H         1.812894        -1.095048         2.028388
