19
Iteration:  3804charge 0 multiplicity 1
 C         0.043764         0.024606        -0.056296
 C         1.551051        -0.060528        -0.023271
 C         2.332828         1.237516         0.393538
 C         3.339728         0.371055         1.132448
 C         4.005343        -0.395456         0.011808
 C         3.437018        -0.287895        -1.377349
 O         1.996329        -0.573156        -1.288828
 O         3.352819        -1.650268         0.616102
 C         2.324925        -0.743231         1.132922
 H        -0.416601         1.032890         0.210373
 H        -0.429348        -0.393798        -1.024170
 H        -0.286016        -0.668350         0.600034
 H         2.506070         2.077832        -0.248344
 H         1.626777         1.697606         1.056982
 H         3.847066         0.963412         1.952488
 H         5.091321        -0.661337         0.037990
 H         3.701520         0.848385        -1.682206
 H         3.875796        -1.052321        -2.089396
 H         1.944864        -0.951914         2.188097
