19
Iteration:  3149
 C         0.006942        -0.165875        -0.074946
 C         1.506117         0.021547         0.049501
 C         2.236731         1.391990         0.450330
 C         3.336633         0.409184         0.956349
 C         4.057655        -0.530804         0.078262
 C         3.504322        -0.416730        -1.415833
 O         2.009660        -0.350573        -1.303948
 O         3.320164        -1.668311         0.617855
 C         2.369311        -0.725529         1.226456
 H        -0.518525        -0.176495         0.839577
 H        -0.279594         0.642715        -0.910804
 H         0.114205        -1.044368        -0.680395
 H         2.467066         2.050791        -0.385275
 H         1.711176         1.886709         1.233597
 H         3.838452         0.819282         1.915947
 H         5.100821        -0.637135         0.262115
 H         3.851450         0.611298        -1.886847
 H         3.842561        -1.385538        -1.957908
 H         1.842508        -1.187786         2.112895
