19
Iteration:  1820
 C        -0.004370        -0.229177        -0.084467
 C         1.507265        -0.003675        -0.028337
 C         2.291335         1.330711         0.376917
 C         3.377411         0.512701         1.039592
 C         4.104870        -0.540361         0.045522
 C         3.457522        -0.359288        -1.332065
 O         2.032118        -0.323782        -1.297601
 O         3.239612        -1.738140         0.668442
 C         2.377384        -0.663605         1.165930
 H        -0.560201         0.324566         0.732793
 H        -0.295903         0.139353        -1.154683
 H        -0.296698        -1.327581        -0.080525
 H         2.541845         2.049503        -0.363478
 H         1.863873         1.913417         1.243200
 H         3.858680         0.932908         1.930228
 H         5.217295        -0.795835         0.117942
 H         3.983749         0.465173        -1.762091
 H         3.718070        -1.202836        -2.040833
 H         1.744943        -0.992991         2.053678
