19
Iteration:  4200charge 0 multiplicity 1
 C         0.090425        -0.048563         0.001559
 C         1.553060        -0.086427        -0.044707
 C         2.226740         1.236521         0.439644
 C         3.329739         0.478907         1.071992
 C         4.030886        -0.511061         0.034876
 C         3.429191        -0.299266        -1.376807
 O         1.970090        -0.348525        -1.379330
 O         3.403765        -1.752927         0.679743
 C         2.350541        -0.722167         1.126786
 H        -0.180242         0.791231        -0.563386
 H        -0.290981        -0.898374        -0.416796
 H        -0.323878        -0.039548         1.044954
 H         2.428537         1.943234        -0.368065
 H         1.606341         1.769090         1.166778
 H         3.705416         0.735015         2.007732
 H         5.084657        -0.561970        -0.021145
 H         3.950863         0.544056        -1.860168
 H         3.684267        -1.213864        -1.969320
 H         1.691168        -0.943316         1.936438
