19
Iteration:  3025charge 0 multiplicity 1
 C        -0.012221        -0.044707        -0.131839
 C         1.532110        -0.002496         0.021120
 C         2.155642         1.337255         0.518588
 C         3.346974         0.476543         1.108169
 C         4.105097        -0.548888         0.025905
 C         3.468403        -0.379333        -1.372076
 O         2.003393        -0.445371        -1.316072
 O         3.374644        -1.704820         0.602593
 C         2.377473        -0.737413         1.100667
 H        -0.600798         0.675745         0.532563
 H        -0.239067         0.217816        -1.149899
 H        -0.156903        -1.137437         0.217299
 H         2.397825         2.065646        -0.250399
 H         1.845332         1.865040         1.395939
 H         3.959825         0.677624         1.972875
 H         5.134164        -0.700030        -0.007451
 H         3.694110         0.764659        -1.661704
 H         3.841523        -1.114616        -2.058209
 H         1.855888        -1.047010         1.981673
