19
Iteration:  2107
 C         0.090576        -0.151245         0.036214
 C         1.572999        -0.005905         0.014350
 C         2.185779         1.351040         0.388720
 C         3.373111         0.448781         1.079467
 C         3.950229        -0.528938         0.024901
 C         3.579423        -0.318224        -1.340028
 O         2.081871        -0.383162        -1.266379
 O         3.191998        -1.720442         0.568571
 C         2.321948        -0.697654         1.057303
 H        -0.086697         0.193744         1.127085
 H        -0.442877         0.384442        -0.616299
 H        -0.206596        -1.189781         0.078905
 H         2.528604         1.938449        -0.567069
 H         1.470207         1.917120         0.947719
 H         4.008618         0.642618         1.848975
 H         5.085731        -0.714534         0.128109
 H         3.998078         0.501677        -1.933112
 H         3.995553        -1.037886        -2.082049
 H         1.836168        -1.070895         1.906164
