19
Iteration:  2616charge 0 multiplicity 1
 C         0.036476         0.011731        -0.073381
 C         1.583909        -0.006980         0.020059
 C         2.176283         1.298862         0.444006
 C         3.347286         0.436132         1.124365
 C         4.045254        -0.503877         0.041969
 C         3.548894        -0.374533        -1.398676
 O         2.005594        -0.492185        -1.300026
 O         3.308953        -1.676097         0.557207
 C         2.379655        -0.807496         1.232643
 H        -0.425425         0.366613         0.845039
 H        -0.095561         0.754747        -0.956409
 H        -0.413768        -0.881462        -0.536798
 H         2.241144         2.123114        -0.253973
 H         1.476884         1.828591         1.127518
 H         3.913253         1.204887         1.734352
 H         5.095385        -0.660267         0.041313
 H         3.729919         0.637756        -1.928775
 H         3.692614        -1.072853        -2.171094
 H         1.806007        -1.185010         2.101920
