19
Iteration:  2960
 C         0.077349        -0.204287        -0.036034
 C         1.520201         0.038567        -0.093975
 C         2.317605         1.379785         0.471866
 C         3.301265         0.435047         1.073622
 C         4.047377        -0.551532         0.086982
 C         3.438188        -0.359088        -1.368660
 O         2.082041        -0.372716        -1.311968
 O         3.251516        -1.669472         0.566873
 C         2.325412        -0.729418         1.142616
 H        -0.093890        -0.004024         1.076710
 H        -0.648179         0.309448        -0.605676
 H        -0.182982        -1.278856        -0.418724
 H         2.515472         2.096657        -0.336429
 H         1.848901         1.755198         1.355580
 H         3.944664         0.995404         1.752782
 H         5.093307        -0.562767         0.209003
 H         3.838626         0.610499        -1.646162
 H         3.680697        -1.234875        -2.022816
 H         1.798825        -1.038685         2.040167
