19
Iteration:  2181charge 0 multiplicity 1
 C         0.013716         0.014281        -0.072408
 C         1.541210         0.025885        -0.059412
 C         2.159062         1.301060         0.454791
 C         3.364156         0.474260         1.077138
 C         3.995377        -0.489758         0.066765
 C         3.486245        -0.375148        -1.335127
 O         2.022684        -0.445536        -1.293089
 O         3.345251        -1.699414         0.551770
 C         2.465092        -0.831546         1.218837
 H        -0.596438         0.506901         0.784716
 H        -0.298954         0.625159        -0.974404
 H        -0.313028        -1.021272        -0.140744
 H         2.384277         1.930883        -0.455267
 H         1.511973         1.694082         1.250742
 H         4.134537         0.890636         1.715749
 H         5.103056        -0.622965         0.148680
 H         3.825572         0.497853        -1.951468
 H         3.743428        -1.303559        -1.922648
 H         1.785601        -1.228833         2.005361
