19
Iteration:  4222
 C        -0.068762         0.048210        -0.029338
 C         1.448829         0.058175        -0.063795
 C         2.222094         1.290531         0.366431
 C         3.287533         0.466797         1.094123
 C         4.034111        -0.447159         0.046821
 C         3.472394        -0.397844        -1.354336
 O         2.019065        -0.450500        -1.302710
 O         3.497618        -1.687810         0.598285
 C         2.403788        -0.928407         1.182069
 H        -0.349638         1.029186        -0.254830
 H        -0.585717        -0.627442        -0.563390
 H        -0.386363        -0.148589         1.043809
 H         2.591173         1.977085        -0.411265
 H         1.674627         1.931015         1.073005
 H         3.824637         0.719668         1.958498
 H         5.075628        -0.428971         0.161331
 H         3.951091         0.513467        -1.705112
 H         3.810074        -1.196601        -2.064442
 H         1.992950        -1.562984         1.931680
