19
Iteration:  3733
 C         0.073307        -0.239739        -0.056316
 C         1.547046         0.103482        -0.013544
 C         2.305133         1.432135         0.485283
 C         3.361269         0.561850         1.051183
 C         3.996996        -0.600530         0.025347
 C         3.428996        -0.485623        -1.419650
 O         2.003702        -0.368495        -1.332414
 O         3.292356        -1.708394         0.639015
 C         2.353265        -0.667077         1.190787
 H        -0.540756        -0.117856         0.804059
 H        -0.371803         0.270647        -0.856314
 H         0.097401        -1.366662        -0.492161
 H         2.500790         2.268747        -0.203109
 H         1.711234         1.906961         1.301889
 H         3.953983         0.780051         1.918416
 H         5.071019        -0.674731        -0.027921
 H         3.901116         0.436104        -1.754794
 H         3.748966        -1.352158        -1.979539
 H         1.858593        -1.089353         2.032120
