19
Iteration:  3384charge 0 multiplicity 1
 C         0.064046        -0.146328        -0.103015
 C         1.467100        -0.017305         0.047958
 C         2.275921         1.309494         0.464194
 C         3.308658         0.474030         1.048090
 C         4.061829        -0.472371        -0.015991
 C         3.488756        -0.358385        -1.442032
 O         2.022043        -0.342714        -1.202725
 O         3.307815        -1.693701         0.587232
 C         2.383923        -0.774856         1.173029
 H        -0.432273         0.655226         0.494466
 H        -0.173605         0.072882        -1.129910
 H        -0.452389        -1.189920         0.001957
 H         2.528101         2.014461        -0.380043
 H         1.707126         1.948050         1.181097
 H         3.805218         0.683309         1.976587
 H         5.165051        -0.747053         0.245381
 H         3.911481         0.439806        -2.001981
 H         3.673820        -1.355239        -1.904940
 H         1.849527        -1.027169         2.106070
