19
Iteration:  3473charge 0 multiplicity 1
 C        -0.099330        -0.001170        -0.130930
 C         1.544849        -0.027965         0.026437
 C         2.262340         1.353115         0.447950
 C         3.361867         0.420199         1.125641
 C         4.076245        -0.419255         0.049408
 C         3.447473        -0.372033        -1.378382
 O         2.020742        -0.524559        -1.253288
 O         3.428844        -1.690904         0.553503
 C         2.320326        -0.727957         1.167762
 H        -0.615840        -0.132329         0.830017
 H        -0.209260         0.996873        -0.440030
 H        -0.598175        -0.872972        -0.881548
 H         2.616298         1.931482        -0.473851
 H         1.601715         1.906718         1.155126
 H         3.955319         0.580076         2.056852
 H         5.279991        -0.539374        -0.017781
 H         3.753656         0.566629        -1.917659
 H         3.606562        -1.297188        -2.017927
 H         1.917396        -1.313647         2.017045
