19
Iteration:   228charge 0 multiplicity 1
 C         0.085141        -0.170236         0.073356
 C         1.561582        -0.001255         0.003552
 C         2.280649         1.358246         0.309338
 C         3.336504         0.465506         1.113153
 C         3.950078        -0.482198         0.080681
 C         3.503414        -0.251239        -1.340691
 O         2.059542        -0.485535        -1.369441
 O         3.249130        -1.711886         0.574480
 C         2.359325        -0.756954         1.145604
 H        -0.311115        -0.200939         1.062854
 H        -0.437238         0.631814        -0.458927
 H        -0.204028        -1.070446        -0.602321
 H         2.556036         1.880793        -0.658618
 H         1.578222         2.070233         0.945144
 H         3.865747         0.706586         2.010191
 H         5.063725        -0.446082         0.138242
 H         3.698693         0.774218        -1.610790
 H         3.985757        -1.000554        -1.939588
 H         1.807230        -1.054252         2.015976
