19
Iteration:  4090charge 0 multiplicity 1
 C        -0.032351         0.050111        -0.023162
 C         1.553430        -0.024904        -0.034114
 C         2.205560         1.267623         0.442694
 C         3.248805         0.398031         1.086425
 C         4.018100        -0.455037         0.049066
 C         3.449698        -0.362989        -1.373146
 O         2.060232        -0.463792        -1.278511
 O         3.470663        -1.675938         0.562462
 C         2.373294        -0.814566         1.102115
 H        -0.406473         0.704092        -0.837508
 H        -0.475130        -0.910108        -0.173287
 H        -0.367482         0.499922         0.966029
 H         2.316901         2.002175        -0.304332
 H         1.650027         1.683625         1.260653
 H         3.869809         0.672429         1.966181
 H         5.069753        -0.415231         0.242676
 H         3.824507         0.658872        -1.791470
 H         3.787502        -1.158950        -2.088302
 H         1.906237        -1.126703         2.018981
