19
Iteration:  4435
 C        -0.053635        -0.172182         0.131504
 C         1.573353         0.048713        -0.025490
 C         2.243158         1.343628         0.469897
 C         3.282829         0.476993         1.032545
 C         4.078007        -0.569299         0.010719
 C         3.510568        -0.368441        -1.394457
 O         2.091639        -0.297003        -1.358227
 O         3.324771        -1.701480         0.641742
 C         2.331533        -0.780590         1.065145
 H        -0.555525         0.823505        -0.172910
 H        -0.302004        -0.852421        -0.766263
 H        -0.444720        -0.638080         0.985121
 H         2.311857         2.009656        -0.424269
 H         1.717932         1.911263         1.283062
 H         3.906010         0.903165         1.849066
 H         5.186400        -0.703643         0.122895
 H         3.880682         0.446724        -1.994507
 H         3.791042        -1.338772        -1.983601
 H         1.722446        -1.246668         1.891469
