19
Iteration:  4622
 C        -0.006508        -0.261262        -0.027128
 C         1.540673         0.007531        -0.050734
 C         2.229313         1.329223         0.453546
 C         3.446343         0.448442         1.011337
 C         4.071940        -0.617803         0.031446
 C         3.458432        -0.341572        -1.350239
 O         2.022200        -0.226460        -1.275135
 O         3.287330        -1.717444         0.663328
 C         2.330237        -0.652438         1.071301
 H        -0.612949         0.560125        -0.486803
 H        -0.192512        -1.175329        -0.491817
 H        -0.229889        -0.462561         0.968308
 H         2.508620         2.094915        -0.270480
 H         1.880400         1.735222         1.410963
 H         4.056872         0.708323         1.810071
 H         5.160337        -0.780274         0.002350
 H         3.806874         0.627799        -1.773202
 H         3.630936        -1.172038        -2.141461
 H         1.655362        -0.892966         1.891942
