19
Iteration:  1048charge 0 multiplicity 1
 C         0.025545        -0.120674        -0.148640
 C         1.490847        -0.036554        -0.022741
 C         2.196763         1.302888         0.478588
 C         3.337160         0.479041         1.003776
 C         4.036032        -0.503124         0.055306
 C         3.409978        -0.472960        -1.361782
 O         2.034736        -0.263068        -1.386304
 O         3.419071        -1.716429         0.709075
 C         2.401886        -0.696018         1.224674
 H        -0.580633         0.022192         0.887241
 H        -0.167985         0.619750        -0.907238
 H        -0.253979        -1.114386        -0.567931
 H         2.402409         2.089777        -0.323803
 H         1.615917         1.666830         1.275831
 H         4.026022         0.827994         1.876272
 H         5.085719        -0.494690         0.075839
 H         3.864126         0.309573        -1.956790
 H         3.540707        -1.503484        -1.687761
 H         1.893751        -1.097710         2.218389
