19
Iteration:  4758charge 0 multiplicity 1
 C         0.055639        -0.302344         0.072486
 C         1.509967         0.085742         0.012165
 C         2.243768         1.370904         0.468190
 C         3.345428         0.409455         1.083422
 C         4.042867        -0.546629         0.056289
 C         3.557364        -0.408025        -1.396640
 O         2.092071        -0.204822        -1.305290
 O         3.212901        -1.698200         0.501119
 C         2.289976        -0.721415         1.058358
 H        -0.355700         0.070507        -0.860726
 H        -0.022792        -1.446762         0.188146
 H        -0.628078         0.078276         0.964806
 H         2.463017         2.010622        -0.397730
 H         1.850796         1.999521         1.268924
 H         4.089880         0.620305         1.936665
 H         5.145076        -0.748922         0.183405
 H         4.090350         0.439066        -1.975999
 H         3.696752        -1.344924        -1.917867
 H         1.710018        -0.792258         2.024842
