19
Iteration:   593
 C         0.106643        -0.120932         0.130998
 C         1.558682        -0.031547        -0.093430
 C         2.163249         1.346518         0.365756
 C         3.251945         0.424016         1.113909
 C         3.979443        -0.510987         0.074032
 C         3.487166        -0.292014        -1.327136
 O         2.118238        -0.384997        -1.379036
 O         3.331640        -1.708858         0.595209
 C         2.332177        -0.764677         1.071935
 H        -0.264022         0.378579         1.041200
 H        -0.340803         0.539823        -0.680174
 H        -0.335553        -1.142889        -0.067637
 H         2.588954         1.854668        -0.530449
 H         1.556190         2.116056         1.035938
 H         3.869020         0.663874         2.068924
 H         5.126824        -0.547968         0.258369
 H         3.830701         0.538407        -1.866785
 H         3.969787        -1.264618        -1.875243
 H         1.712609        -1.159976         1.924342
