19
Iteration:   716charge 0 multiplicity 1
 C         0.011123        -0.047184         0.039490
 C         1.556541        -0.113303        -0.111835
 C         2.266261         1.313669         0.370130
 C         3.230863         0.433641         1.169029
 C         4.040840        -0.414485         0.109997
 C         3.499034        -0.385822        -1.369628
 O         2.038392        -0.457152        -1.431094
 O         3.386594        -1.666628         0.663571
 C         2.330119        -0.759192         1.123055
 H        -0.077479         0.126429         1.097868
 H        -0.469708         0.858028        -0.399335
 H        -0.633433        -0.909616        -0.169625
 H         2.696262         1.999649        -0.471155
 H         1.612586         1.952792         0.931409
 H         3.831725         0.728257         1.988768
 H         5.095505        -0.443006         0.097994
 H         3.741948         0.556602        -1.740990
 H         4.013445        -1.015702        -2.195307
 H         1.636900        -1.127764         1.979483
