19
Iteration:  2315
 C         0.022426        -0.008932        -0.058955
 C         1.516248         0.001222        -0.048825
 C         2.259560         1.328346         0.385475
 C         3.280217         0.398659         1.056374
 C         4.007470        -0.534030         0.043721
 C         3.442332        -0.279522        -1.350455
 O         2.034201        -0.451415        -1.290873
 O         3.425577        -1.734653         0.640464
 C         2.342262        -0.793326         1.203240
 H        -0.417960         0.615275         0.856852
 H        -0.366783         0.311121        -1.043298
 H        -0.387562        -1.064811         0.139328
 H         2.782310         2.069383        -0.390100
 H         1.670751         2.067120         0.952456
 H         3.923328         0.743280         1.804546
 H         5.180334        -0.457058         0.108116
 H         3.876964         0.583012        -1.834793
 H         3.593611        -0.994406        -2.226130
 H         1.806334        -1.172517         2.080722
