19
Iteration:   542charge 0 multiplicity 1
 C         0.038456        -0.027849        -0.259089
 C         1.515739        -0.049070         0.086697
 C         2.177957         1.281296         0.483051
 C         3.357688         0.477390         1.109170
 C         4.058239        -0.567710        -0.082544
 C         3.466932        -0.333136        -1.433111
 O         1.977434        -0.440845        -1.218819
 O         3.374908        -1.678349         0.641315
 C         2.430884        -0.732154         1.253288
 H        -0.604190        -0.081155         0.573624
 H        -0.254752         0.809991        -0.867839
 H        -0.117429        -0.890187        -0.898186
 H         2.307920         2.023625        -0.360624
 H         1.641959         1.605247         1.324018
 H         3.977437         0.871061         1.942508
 H         5.116771        -0.674949        -0.008273
 H         3.494809         0.844681        -1.601073
 H         3.772937        -0.982104        -2.164660
 H         1.941375        -1.128863         2.222196
