19
Iteration:   607charge 0 multiplicity 1
 C        -0.001075        -0.156514         0.103352
 C         1.538641        -0.050552        -0.068895
 C         2.299310         1.298193         0.369843
 C         3.216627         0.461998         1.077276
 C         4.031750        -0.401504         0.094496
 C         3.626689        -0.345115        -1.390899
 O         2.056946        -0.319085        -1.424896
 O         3.258669        -1.728974         0.650129
 C         2.329115        -0.828346         1.110632
 H        -0.031970         0.240488         1.075782
 H        -0.673902         0.358433        -0.569658
 H        -0.315925        -1.176375         0.294973
 H         2.763036         1.960355        -0.455937
 H         1.698580         1.935069         1.056455
 H         3.851004         0.948333         1.839709
 H         5.090094        -0.513182         0.173270
 H         4.009199         0.704141        -1.742510
 H         3.895700        -1.135656        -1.983746
 H         1.631653        -1.212018         1.956082
