19
Iteration:  2210charge 0 multiplicity 1
 C         0.034198        -0.090105         0.091574
 C         1.544292         0.037523        -0.061427
 C         2.254880         1.363481         0.387227
 C         3.319509         0.392662         1.041532
 C         4.030944        -0.540985         0.053115
 C         3.587833        -0.320103        -1.396866
 O         2.040552        -0.470527        -1.292920
 O         3.297514        -1.659250         0.655498
 C         2.314754        -0.739917         1.051454
 H        -0.456734        -0.079745         1.007029
 H        -0.476255         0.790429        -0.471430
 H        -0.251847        -0.978071        -0.484318
 H         2.528697         1.903833        -0.441664
 H         1.591797         1.837948         1.136258
 H         4.021838         0.671995         1.971304
 H         5.063733        -0.708375         0.207282
 H         3.717458         0.719334        -1.662451
 H         3.717480        -1.134453        -2.060125
 H         1.564494        -1.098495         1.801896
