19
Iteration:  3578
 C         0.055104        -0.289310        -0.000855
 C         1.583329         0.058639        -0.057975
 C         2.313605         1.321734         0.401444
 C         3.359093         0.406621         1.078720
 C         3.980448        -0.526943         0.052081
 C         3.500893        -0.326319        -1.403662
 O         2.022232        -0.311108        -1.352940
 O         3.213133        -1.653030         0.631162
 C         2.323748        -0.680559         1.195820
 H        -0.550862         0.316909         0.765333
 H        -0.538902        -0.305524        -0.967188
 H         0.002916        -1.298491         0.333532
 H         2.598002         2.216239        -0.164262
 H         1.850379         1.804241         1.292517
 H         4.088636         0.698030         1.854524
 H         5.010056        -0.908418         0.085545
 H         4.116529         0.532330        -1.969284
 H         4.049748        -1.096464        -2.106069
 H         1.669164        -1.011027         2.038910
