19
Iteration:  4663
 C         0.060196         0.007016        -0.029448
 C         1.534863        -0.030146        -0.025547
 C         2.245012         1.241854         0.436603
 C         3.289067         0.413862         1.158420
 C         4.078470        -0.429204         0.037064
 C         3.420720        -0.331379        -1.360985
 O         2.008124        -0.461351        -1.280862
 O         3.398223        -1.668737         0.559688
 C         2.356526        -0.816735         1.097776
 H        -0.147408         1.111560        -0.124208
 H        -0.585404        -0.547576        -0.739101
 H        -0.424399        -0.134302         0.897537
 H         2.527270         1.883273        -0.428812
 H         1.472769         1.861442         0.996734
 H         3.836573         0.860967         1.988114
 H         5.185701        -0.511802         0.047747
 H         3.755154         0.562079        -1.940808
 H         3.734219        -1.252573        -1.970912
 H         1.792484        -1.340242         1.851974
