19
Iteration:  2809
 C         0.127870        -0.208523        -0.060749
 C         1.585846         0.053345        -0.041004
 C         2.263741         1.388034         0.473911
 C         3.303691         0.445255         1.062823
 C         3.988989        -0.537034         0.015762
 C         3.520648        -0.281143        -1.399293
 O         2.025482        -0.358494        -1.298710
 O         3.190269        -1.776922         0.613548
 C         2.389254        -0.728377         1.194487
 H        -0.386583         0.052082         0.819043
 H        -0.550940         0.329017        -0.739136
 H        -0.121886        -1.282128        -0.042069
 H         2.565314         2.048995        -0.403313
 H         1.504019         1.924685         1.040938
 H         4.015111         0.665961         1.877691
 H         5.146638        -0.600340         0.138744
 H         4.012753         0.696794        -1.789821
 H         3.932287        -1.106788        -2.130662
 H         1.729809        -1.059943         2.044889
