19
Iteration:  1563
 C         0.013821        -0.033240        -0.188339
 C         1.543172         0.022185        -0.052911
 C         2.184575         1.319613         0.459718
 C         3.403446         0.453314         1.082870
 C         3.991451        -0.486758         0.037869
 C         3.418577        -0.441384        -1.333528
 O         1.982698        -0.468872        -1.347140
 O         3.412513        -1.694572         0.678595
 C         2.427795        -0.735475         1.236297
 H        -0.569248        -0.105759         0.844270
 H        -0.290947         0.848915        -0.780561
 H        -0.334987        -0.941790        -0.730433
 H         2.470360         2.009438        -0.285082
 H         1.627835         1.797333         1.238106
 H         4.034920         0.760694         1.898523
 H         5.046433        -0.494162         0.048973
 H         3.822918         0.706634        -1.668956
 H         3.678832        -1.088301        -2.116365
 H         1.861627        -0.982963         2.151268
