19
Iteration:   814charge 0 multiplicity 1
 C         0.014841        -0.057558        -0.092626
 C         1.497640         0.058283         0.030749
 C         2.140919         1.374513         0.443994
 C         3.337150         0.470490         1.045771
 C         4.092906        -0.473703         0.040497
 C         3.467775        -0.452527        -1.358540
 O         2.054958        -0.466674        -1.317065
 O         3.401180        -1.706424         0.698148
 C         2.351716        -0.755044         1.098860
 H        -0.501988         0.131123         0.809288
 H        -0.333676         0.539861        -0.944470
 H        -0.250253        -1.094698        -0.256160
 H         2.348381         1.960230        -0.405984
 H         1.659829         1.964824         1.141486
 H         3.927642         0.795543         1.847451
 H         5.136881        -0.514875         0.005707
 H         3.830651         0.608100        -1.752387
 H         3.788403        -1.288403        -2.081406
 H         1.726765        -1.227255         1.844905
