19
Iteration:  1753
 C         0.029379        -0.065469        -0.025373
 C         1.531856         0.016120         0.013647
 C         2.255964         1.361030         0.357881
 C         3.206998         0.473675         1.106315
 C         4.017964        -0.516895        -0.005788
 C         3.497356        -0.411891        -1.336844
 O         2.108474        -0.466558        -1.336369
 O         3.369395        -1.662265         0.645265
 C         2.308621        -0.782076         1.135792
 H        -0.292048         0.276549         0.928621
 H        -0.531472         0.693354        -0.708732
 H        -0.401930        -1.087240        -0.234905
 H         2.612467         1.971217        -0.386836
 H         1.677447         1.896660         1.146121
 H         3.820765         0.998157         1.881172
 H         5.126771        -0.545207        -0.007523
 H         3.948912         0.423432        -1.808785
 H         3.976418        -1.207260        -1.916447
 H         1.703477        -1.176020         2.021611
