19
Iteration:  4819
 C        -0.059699         0.057123        -0.111782
 C         1.492362         0.007415        -0.040624
 C         2.210679         1.275592         0.412648
 C         3.383363         0.378293         1.126719
 C         4.008264        -0.464867         0.072960
 C         3.441049        -0.303831        -1.327456
 O         2.006580        -0.479393        -1.221541
 O         3.449649        -1.726169         0.547252
 C         2.429688        -0.847630         1.150008
 H        -0.476377         0.979101        -0.672478
 H        -0.402304        -0.676743        -0.826014
 H        -0.557671         0.122522         0.837933
 H         2.478286         2.034529        -0.378457
 H         1.575237         1.841928         1.163704
 H         4.125257         0.909092         1.743786
 H         5.106051        -0.508542         0.097283
 H         3.592729         0.677765        -1.652154
 H         3.767858        -0.957576        -2.206197
 H         2.089242        -1.289241         2.100959
