19
Iteration:  3673charge 0 multiplicity 1
 C         0.035218        -0.023705         0.009845
 C         1.510867        -0.001061        -0.101838
 C         2.239137         1.304679         0.361331
 C         3.322380         0.458010         1.025181
 C         4.010696        -0.461088         0.029972
 C         3.499464        -0.348358        -1.339214
 O         2.042049        -0.472798        -1.307639
 O         3.360313        -1.721138         0.683988
 C         2.358582        -0.769775         1.168016
 H        -0.186034        -0.448628         1.057074
 H        -0.441616         1.057469        -0.096270
 H        -0.433285        -0.677720        -0.675289
 H         2.541268         1.870307        -0.579235
 H         1.517937         1.960411         1.035989
 H         3.765301         0.855859         1.972870
 H         5.132280        -0.530489         0.076610
 H         3.805875         0.549136        -1.800236
 H         3.858702        -1.120855        -2.075501
 H         1.751198        -1.241697         2.027859
