19
Iteration:   707charge 0 multiplicity 1
 C         0.048058         0.015441        -0.014537
 C         1.516536        -0.019450        -0.098037
 C         2.213393         1.297013         0.390461
 C         3.224171         0.440752         1.096371
 C         4.043774        -0.447450         0.043620
 C         3.505262        -0.364294        -1.327771
 O         2.033833        -0.487682        -1.335047
 O         3.419190        -1.658197         0.690613
 C         2.337981        -0.824191         1.097026
 H        -0.149685         0.114679         1.051648
 H        -0.455715         0.845838        -0.459376
 H        -0.300203        -0.902678        -0.390227
 H         2.579154         1.857896        -0.581110
 H         1.570697         1.865793         1.037503
 H         3.738645         0.722366         1.962610
 H         5.090839        -0.482234        -0.020278
 H         3.795694         0.601960        -1.672931
 H         3.827813        -1.056623        -2.050812
 H         1.848941        -1.330573         1.993526
