19
Iteration:  2085
 C         0.013528        -0.167661         0.057906
 C         1.505536         0.021738        -0.136548
 C         2.301168         1.382015         0.401251
 C         3.347308         0.428467         1.036704
 C         4.029189        -0.607363         0.084267
 C         3.515051        -0.315746        -1.299300
 O         2.020544        -0.403283        -1.372157
 O         3.309985        -1.667014         0.604939
 C         2.292109        -0.708183         1.162606
 H        -0.351969        -0.249891         1.146839
 H        -0.471056         0.612606        -0.336385
 H        -0.284476        -1.100629        -0.394593
 H         2.873172         2.052956        -0.342055
 H         1.793516         1.890486         1.185920
 H         3.839970         0.818923         1.840468
 H         5.154487        -0.549386         0.325544
 H         3.896099         0.621444        -1.883587
 H         3.717503        -1.029791        -2.125644
 H         1.956392        -1.260835         1.976021
