19
Iteration:  4340
 C         0.068876        -0.209507         0.002374
 C         1.584327        -0.015950        -0.024858
 C         2.241178         1.353268         0.612173
 C         3.343820         0.440872         1.078212
 C         3.985896        -0.538213         0.034960
 C         3.456415        -0.370878        -1.452100
 O         2.045420        -0.340993        -1.355225
 O         3.328597        -1.641454         0.586101
 C         2.318611        -0.769080         1.079017
 H        -0.312070         0.065431        -0.993984
 H        -0.422638        -0.993509         0.505598
 H        -0.331446         0.683451         0.626624
 H         2.672205         2.177681        -0.046734
 H         1.557495         1.815757         1.314129
 H         3.918197         0.718183         1.912270
 H         5.067373        -0.522066         0.084737
 H         3.920949         0.520786        -2.036214
 H         3.668881        -1.156346        -2.090077
 H         1.751182        -1.196856         1.873646
