19
Iteration:  1322
 C        -0.041819        -0.093072        -0.099671
 C         1.493785         0.054342        -0.040152
 C         2.230047         1.397441         0.424946
 C         3.299592         0.446993         1.111101
 C         4.095650        -0.538939        -0.011961
 C         3.475380        -0.457497        -1.347983
 O         2.018993        -0.427809        -1.332213
 O         3.417596        -1.715463         0.695529
 C         2.372902        -0.696311         1.143372
 H        -0.404979        -0.053769         0.909776
 H        -0.368859         0.703068        -0.604548
 H        -0.377051        -1.014260        -0.492540
 H         2.539066         2.194328        -0.292571
 H         1.578908         1.882299         1.160739
 H         3.968124         0.696732         1.913806
 H         5.126751        -0.664878         0.037840
 H         3.806661         0.596713        -1.810900
 H         3.789267        -1.290921        -1.962889
 H         1.715850        -1.034644         1.977935
