19
Iteration:  4596
 C         0.077269        -0.273024        -0.050871
 C         1.533632         0.066763         0.101635
 C         2.152136         1.396084         0.486793
 C         3.378443         0.466956         1.007830
 C         4.000491        -0.545864        -0.036860
 C         3.513599        -0.370654        -1.398168
 O         2.098777        -0.269301        -1.317221
 O         3.172828        -1.758323         0.544736
 C         2.401294        -0.717911         1.246335
 H        -0.325609         0.285369        -0.901420
 H        -0.085054        -1.426496        -0.005619
 H        -0.608459        -0.002062         0.818105
 H         2.607437         2.050686        -0.301371
 H         1.903899         1.984377         1.431492
 H         4.269742         0.874721         1.658214
 H         5.106032        -0.653423         0.038085
 H         3.884653         0.573696        -1.932702
 H         3.804082        -1.283437        -2.044989
 H         1.870974        -1.144781         2.122814
