19
Iteration:  2909charge 0 multiplicity 1
 C        -0.053922         0.076455        -0.093453
 C         1.469001        -0.004135        -0.082768
 C         2.194208         1.304063         0.433933
 C         3.319799         0.404201         1.095451
 C         4.013863        -0.520112         0.022806
 C         3.562767        -0.329000        -1.364560
 O         1.986518        -0.506403        -1.272754
 O         3.456736        -1.640836         0.657517
 C         2.391567        -0.850276         1.159961
 H        -0.503286         0.059102         0.833613
 H        -0.615670         0.916816        -0.690473
 H        -0.289546        -0.806610        -0.616108
 H         2.575762         2.051308        -0.308784
 H         1.624775         1.682894         1.297583
 H         4.097984         0.811898         1.761403
 H         5.198374        -0.575330        -0.043867
 H         3.701677         0.823936        -1.601742
 H         3.864234        -1.127047        -2.085163
 H         1.950335        -1.380863         2.048452
