19
Iteration:    75charge 0 multiplicity 1
 C         0.088759        -0.178770        -0.083256
 C         1.499350         0.073304         0.016562
 C         2.204395         1.345018         0.421046
 C         3.333386         0.485118         0.978624
 C         4.002267        -0.570540         0.026434
 C         3.442735        -0.371055        -1.320244
 O         2.030107        -0.400704        -1.218151
 O         3.361660        -1.671826         0.617367
 C         2.369222        -0.743382         1.111873
 H        -0.414943        -0.125461         0.808096
 H        -0.266630         0.540650        -0.759431
 H         0.015862        -1.242610        -0.559226
 H         2.383041         2.108789        -0.302011
 H         1.781158         1.932041         1.330938
 H         3.970429         0.870442         1.865698
 H         5.166149        -0.620298         0.116796
 H         3.867235         0.579570        -1.741942
 H         3.694585        -1.092882        -2.056796
 H         1.714649        -1.185467         1.905633
