19
Iteration:  4928
 C         0.036170        -0.272944        -0.059060
 C         1.562119         0.026211         0.013720
 C         2.314503         1.461110         0.534328
 C         3.381790         0.448040         1.110947
 C         3.975484        -0.593465         0.026712
 C         3.493240        -0.339987        -1.349494
 O         1.998643        -0.365929        -1.313674
 O         3.237459        -1.706892         0.502478
 C         2.371533        -0.656108         1.102311
 H        -0.382584         0.044293        -1.118558
 H        -0.067603        -1.336497         0.140336
 H        -0.445195         0.074907         0.895692
 H         2.555108         2.152387        -0.278816
 H         1.704339         1.840518         1.374063
 H         4.125526         0.862662         1.779153
 H         5.059976        -0.766722         0.166681
 H         4.092885         0.613799        -1.578330
 H         3.664152        -1.193542        -2.096544
 H         1.755507        -0.917596         1.942099
