19
Iteration:  3539charge 0 multiplicity 1
 C         0.022932        -0.133637        -0.024210
 C         1.482356         0.099957        -0.044218
 C         2.265906         1.354154         0.353786
 C         3.332572         0.415847         1.034554
 C         4.053510        -0.556091         0.063084
 C         3.514236        -0.343754        -1.322870
 O         2.042515        -0.366251        -1.272778
 O         3.316942        -1.708644         0.581230
 C         2.325436        -0.784387         1.172711
 H        -0.292471        -0.028571         0.990509
 H        -0.531630         0.520292        -0.642080
 H        -0.185287        -1.292599        -0.188562
 H         2.423714         2.101262        -0.466771
 H         1.746399         1.703966         1.250023
 H         3.972537         0.908439         1.794985
 H         5.176742        -0.472636         0.199561
 H         3.838307         0.528158        -1.926050
 H         3.784305        -1.147579        -2.023019
 H         1.814537        -1.166141         2.085184
