19
Iteration:  3927
 C        -0.000203        -0.027560        -0.115062
 C         1.482580        -0.008429         0.110239
 C         2.184758         1.306076         0.416715
 C         3.339778         0.427596         1.061546
 C         4.104271        -0.576683         0.057206
 C         3.449020        -0.232799        -1.364087
 O         2.065421        -0.481551        -1.280301
 O         3.340408        -1.706797         0.514227
 C         2.417061        -0.779196         1.193882
 H        -0.392884         0.172268        -1.127603
 H        -0.457668        -0.945603         0.322508
 H        -0.415633         0.737840         0.560658
 H         2.468032         1.973540        -0.356803
 H         1.730055         1.956537         1.178745
 H         3.797364         0.693102         1.970460
 H         5.161391        -0.805635         0.044681
 H         3.524660         0.888529        -1.696957
 H         3.781524        -0.765787        -2.340628
 H         2.048781        -1.127517         2.181178
