19
Iteration:  2246charge 0 multiplicity 1
 C         0.004279        -0.169436        -0.056551
 C         1.548940        -0.031835         0.023533
 C         2.292381         1.315560         0.383532
 C         3.369601         0.411550         1.070354
 C         4.028593        -0.555535         0.058163
 C         3.465301        -0.346177        -1.367152
 O         1.982643        -0.318417        -1.346003
 O         3.284060        -1.676049         0.667462
 C         2.389364        -0.672567         1.151833
 H        -0.478691        -0.325384         0.971747
 H        -0.322091         0.772733        -0.552094
 H        -0.259671        -1.020410        -0.706030
 H         2.638100         1.919821        -0.442534
 H         1.717524         1.959953         1.052297
 H         4.087351         0.748256         1.826777
 H         5.098075        -0.722497         0.231794
 H         3.849645         0.472854        -1.930088
 H         3.918064        -1.177016        -1.930072
 H         1.761549        -1.052477         1.977600
