19
Iteration:  2827charge 0 multiplicity 1
 C         0.101477        -0.248513        -0.003097
 C         1.528300         0.073588        -0.039972
 C         2.283064         1.317427         0.365663
 C         3.394163         0.425903         1.067697
 C         4.000064        -0.643097         0.120045
 C         3.421569        -0.267458        -1.353999
 O         2.063781        -0.297990        -1.354671
 O         3.232008        -1.694134         0.628765
 C         2.312305        -0.712518         1.114983
 H        -0.401872         0.105234         1.018049
 H        -0.350205         0.080412        -0.921354
 H        -0.017790        -1.412842        -0.130021
 H         2.550974         2.175226        -0.266331
 H         1.900084         1.856368         1.253504
 H         3.934387         0.937920         1.874678
 H         5.025424        -0.883888         0.041916
 H         3.821983         0.739328        -1.606426
 H         3.962035        -0.888341        -2.097356
 H         1.808514        -1.096544         1.993901
