19
Iteration:  1230charge 0 multiplicity 1
 C         0.053285        -0.199773        -0.051478
 C         1.563933         0.023156         0.052639
 C         2.352110         1.381816         0.296740
 C         3.311318         0.494059         1.080715
 C         3.913432        -0.572352         0.023862
 C         3.535643        -0.226944        -1.396777
 O         2.085695        -0.463226        -1.308145
 O         3.167649        -1.668222         0.641516
 C         2.369947        -0.771836         1.218016
 H        -0.396621        -0.179849         0.992219
 H        -0.420949         0.350040        -0.931898
 H        -0.101962        -1.316051        -0.014806
 H         2.547480         2.012201        -0.593393
 H         1.754874         2.020474         0.944426
 H         4.088583         0.873762         1.862044
 H         5.063006        -0.780241         0.107009
 H         4.008702         0.878244        -1.447865
 H         3.775216        -0.984219        -2.189958
 H         1.889161        -1.228124         2.059126
