19
Iteration:  1956charge 0 multiplicity 1
 C         0.031624        -0.226400         0.033346
 C         1.541178         0.028306         0.015396
 C         2.233787         1.349856         0.431806
 C         3.316814         0.437323         1.039579
 C         4.073780        -0.597807         0.000922
 C         3.507641        -0.397308        -1.308370
 O         2.120224        -0.338982        -1.337209
 O         3.253779        -1.614923         0.599746
 C         2.297699        -0.684869         1.051993
 H        -0.427809         0.279066         1.020524
 H        -0.479624         0.179661        -0.826768
 H        -0.224532        -1.318013         0.105949
 H         2.567075         2.088491        -0.325616
 H         1.660831         1.915058         1.099494
 H         3.927836         0.779633         1.908873
 H         5.125840        -0.946344         0.156989
 H         3.870217         0.630726        -1.560264
 H         3.703398        -1.218659        -2.071290
 H         1.726584        -0.951672         1.915372
