19
Iteration:   325charge 0 multiplicity 1
 C        -0.034968        -0.199723        -0.108705
 C         1.498729         0.030927        -0.037019
 C         2.283360         1.322399         0.439710
 C         3.378490         0.531090         1.091161
 C         4.029452        -0.554844         0.042461
 C         3.468374        -0.329079        -1.313185
 O         2.052201        -0.430324        -1.284038
 O         3.254735        -1.669710         0.579154
 C         2.447124        -0.742594         1.149408
 H        -0.564674         0.102923         0.778678
 H        -0.496910         0.319841        -0.952690
 H        -0.248703        -1.323864         0.005874
 H         2.520811         2.134528        -0.276506
 H         1.800627         1.868405         1.165354
 H         4.025401         0.930293         1.910232
 H         5.087852        -0.740937         0.063639
 H         3.773329         0.716688        -1.672485
 H         3.868376        -1.044083        -2.191924
 H         1.937564        -0.982669         2.085979
