19
Iteration:  4267charge 0 multiplicity 1
 C         0.085694        -0.048846        -0.122895
 C         1.613541        -0.025329        -0.030596
 C         2.238713         1.283159         0.473317
 C         3.335929         0.509543         1.094712
 C         3.998097        -0.575825         0.014204
 C         3.399890        -0.241916        -1.375736
 O         1.988823        -0.475579        -1.298327
 O         3.313554        -1.731132         0.587480
 C         2.410494        -0.734042         1.235110
 H        -0.391885         0.779367        -0.539483
 H        -0.182643        -0.956705        -0.609480
 H        -0.382677        -0.298494         0.864055
 H         2.405580         2.126322        -0.204064
 H         1.685190         1.685123         1.343364
 H         4.007731         1.157034         1.625650
 H         5.057903        -0.787066        -0.014003
 H         3.612445         0.732295        -1.766853
 H         3.940713        -0.957597        -2.095678
 H         1.883107        -1.099561         2.117881
