19
Iteration:  4204charge 0 multiplicity 1
 C         0.056859        -0.001182         0.016868
 C         1.559740        -0.108387        -0.055502
 C         2.217767         1.270096         0.430456
 C         3.299544         0.437553         1.070297
 C         4.024360        -0.512994         0.057463
 C         3.428779        -0.308323        -1.331754
 O         1.969816        -0.353213        -1.393818
 O         3.422194        -1.742918         0.663133
 C         2.397538        -0.752162         1.127642
 H        -0.252081         0.900914        -0.585636
 H        -0.328955        -0.963266        -0.546990
 H        -0.307082        -0.086196         1.055717
 H         2.437740         1.900704        -0.403760
 H         1.549954         1.815769         1.089169
 H         3.848052         0.850790         2.003662
 H         5.150445        -0.517564        -0.076926
 H         3.878270         0.595688        -1.918397
 H         3.715372        -1.253100        -1.895621
 H         1.686004        -0.924496         1.989116
