19
Iteration:  2472
 C        -0.086721        -0.045015        -0.012181
 C         1.568403        -0.014844        -0.026430
 C         2.247204         1.369123         0.375809
 C         3.334205         0.436244         1.127747
 C         4.050703        -0.566620         0.071309
 C         3.509744        -0.325492        -1.378533
 O         2.052629        -0.461680        -1.280373
 O         3.319645        -1.665724         0.587300
 C         2.387486        -0.787880         1.119079
 H        -0.348672         0.498280         0.806583
 H        -0.421533         0.301104        -1.114723
 H        -0.431941        -1.040041        -0.130441
 H         2.543167         2.029981        -0.518246
 H         1.512141         2.062328         0.880446
 H         3.920221         0.776696         2.062381
 H         5.087254        -0.812174         0.139093
 H         3.731508         0.756027        -1.562049
 H         3.843482        -1.060485        -2.038781
 H         1.940347        -1.183607         2.049855
