19
Iteration:  4415
 C         0.031281        -0.072106        -0.024367
 C         1.500601         0.021465        -0.104353
 C         2.262848         1.378709         0.502590
 C         3.338293         0.410951         1.111670
 C         4.011968        -0.463042         0.073970
 C         3.464463        -0.392301        -1.334190
 O         1.977764        -0.484906        -1.304612
 O         3.395076        -1.672137         0.532001
 C         2.411345        -0.747293         1.070838
 H        -0.525104         0.873413        -0.281251
 H        -0.516080        -0.837306        -0.575568
 H        -0.162131        -0.432883         0.972985
 H         2.494732         2.212802        -0.134217
 H         1.702928         1.729243         1.315236
 H         3.959870         0.577550         1.956163
 H         5.106744        -0.539192         0.128972
 H         3.629063         0.625829        -1.797549
 H         3.759138        -1.235666        -1.904341
 H         1.801355        -1.019678         1.925558
