19
Iteration:  1364
 C         0.078456        -0.191495        -0.015382
 C         1.587786        -0.025526         0.001528
 C         2.243343         1.344969         0.239795
 C         3.402949         0.490009         1.040047
 C         4.023508        -0.577608         0.097975
 C         3.490291        -0.308383        -1.274187
 O         2.055912        -0.413970        -1.279816
 O         3.155329        -1.694544         0.587306
 C         2.377788        -0.687597         1.181887
 H        -0.464164        -0.482113         1.041386
 H        -0.402012         0.780983        -0.355821
 H        -0.219948        -0.932749        -0.809089
 H         2.456510         2.066034        -0.631567
 H         1.628145         1.889442         0.874446
 H         3.902409         0.902925         1.957510
 H         5.087880        -0.768058        -0.061204
 H         3.836917         0.696554        -1.515186
 H         3.881218        -0.950707        -2.017922
 H         1.924187        -0.922064         2.143829
