19
Iteration:  4894charge 0 multiplicity 1
 C         0.043200        -0.242447         0.025823
 C         1.549223        -0.026290         0.041550
 C         2.284859         1.294107         0.424118
 C         3.367298         0.423840         1.028086
 C         3.988682        -0.577237         0.018140
 C         3.531241        -0.307350        -1.350440
 O         2.038074        -0.221791        -1.342616
 O         3.277456        -1.711358         0.614553
 C         2.320288        -0.709289         1.134918
 H        -0.588614         0.338797        -0.825447
 H        -0.143432        -1.337791        -0.065355
 H        -0.426640         0.278152         0.865519
 H         2.429686         1.963602        -0.411130
 H         1.737676         1.948541         1.104167
 H         4.011164         0.750652         1.834007
 H         5.070010        -0.703026         0.111794
 H         4.049932         0.656484        -1.755742
 H         3.651588        -1.111015        -2.115432
 H         1.606306        -1.035222         1.846217
