19
Iteration:  3782
 C        -0.046737         0.031583         0.016454
 C         1.495478        -0.012043        -0.039553
 C         2.162304         1.363443         0.392383
 C         3.304862         0.449077         1.024557
 C         4.050015        -0.547891         0.087904
 C         3.491910        -0.333523        -1.351016
 O         2.016073        -0.523919        -1.286708
 O         3.435771        -1.710038         0.622752
 C         2.434303        -0.796164         1.087382
 H        -0.283426         1.065990         0.431493
 H        -0.560416        -0.057040        -1.017824
 H        -0.503483        -0.682986         0.559830
 H         2.510865         2.038845        -0.377782
 H         1.598816         2.086247         0.954916
 H         4.008091         0.935693         1.805519
 H         5.159707        -0.707557         0.251037
 H         3.895705         0.767082        -1.515918
 H         3.945117        -1.079344        -2.067646
 H         1.758645        -1.407583         1.787647
