19
Iteration:  4017
 C         0.020371        -0.195655         0.021231
 C         1.534371        -0.032270        -0.015986
 C         2.202470         1.309086         0.444540
 C         3.395917         0.483038         1.051778
 C         4.010219        -0.615317         0.048265
 C         3.499141        -0.349142        -1.419911
 O         2.043720        -0.262184        -1.396836
 O         3.275461        -1.691325         0.658378
 C         2.386552        -0.698206         1.166601
 H        -0.522021         0.708829        -0.070218
 H        -0.180484        -0.812142        -0.811178
 H        -0.271670        -0.798660         0.987655
 H         2.521073         2.117153        -0.278355
 H         1.490776         1.852262         1.125859
 H         3.985067         0.802219         1.825929
 H         5.074282        -0.780161         0.179377
 H         3.976556         0.658853        -1.742807
 H         3.893471        -1.132189        -2.146701
 H         1.798679        -1.094347         1.989991
