19
Iteration:  4690charge 0 multiplicity 1
 C        -0.056879         0.066878        -0.084772
 C         1.483168         0.044688        -0.022096
 C         2.221426         1.302037         0.487249
 C         3.288514         0.411776         1.092607
 C         4.054264        -0.532862         0.031370
 C         3.487653        -0.296319        -1.365798
 O         2.036064        -0.560536        -1.239285
 O         3.474413        -1.726110         0.495969
 C         2.380840        -0.778248         1.170748
 H        -0.285074         0.951747        -0.633495
 H        -0.679515        -0.716315        -0.490972
 H        -0.556962         0.175919         0.958772
 H         2.511756         2.043446        -0.276018
 H         1.500013         1.681339         1.199995
 H         3.948030         0.859904         1.878278
 H         5.162613        -0.421380         0.184321
 H         3.669951         0.768316        -1.714787
 H         3.821552        -1.007292        -2.173918
 H         1.901564        -1.296295         2.052073
