19
Iteration:  2285
 C         0.058751        -0.046912        -0.101185
 C         1.526770        -0.033513         0.033516
 C         2.169453         1.331942         0.539655
 C         3.385456         0.490497         1.042972
 C         4.059409        -0.538972         0.065923
 C         3.461259        -0.398639        -1.358225
 O         2.017660        -0.458771        -1.348949
 O         3.327514        -1.715693         0.580552
 C         2.397081        -0.697023         1.137080
 H        -0.407405         0.383154         0.746618
 H        -0.241139         0.540480        -1.019404
 H        -0.439484        -0.994647        -0.348011
 H         2.419083         2.279230        -0.117591
 H         1.565670         1.817402         1.401431
 H         4.080040         0.814507         1.911896
 H         5.159944        -0.516311        -0.006904
 H         3.779582         0.518824        -1.974400
 H         3.517729        -1.361837        -1.854550
 H         1.810230        -0.904547         2.042409
