19
Iteration:   436
 C        -0.029485        -0.139082        -0.191045
 C         1.525511        -0.028254         0.052722
 C         2.257665         1.293026         0.495304
 C         3.403214         0.447609         1.025608
 C         4.048507        -0.497385        -0.024274
 C         3.446138        -0.310391        -1.335884
 O         2.043012        -0.443200        -1.239095
 O         3.301221        -1.656128         0.622505
 C         2.374406        -0.737450         1.171097
 H        -0.643640         0.275589         0.664983
 H        -0.214843         0.471267        -1.092366
 H        -0.363707        -1.190213        -0.335517
 H         2.429404         2.150642        -0.109383
 H         1.692143         1.677156         1.324538
 H         4.124748         0.813053         1.671179
 H         5.096604        -0.595441         0.081198
 H         3.786460         0.747135        -1.712139
 H         3.863666        -1.031886        -2.172953
 H         1.872301        -0.988720         2.032820
