19
Iteration:  2750
 C         0.026314         0.067657        -0.114930
 C         1.572296        -0.102282         0.017480
 C         2.219798         1.310687         0.493062
 C         3.290406         0.409556         1.086757
 C         4.001088        -0.519569        -0.006773
 C         3.449411        -0.342149        -1.409334
 O         1.978462        -0.444903        -1.324720
 O         3.478076        -1.658773         0.669456
 C         2.331045        -0.821136         1.192147
 H        -0.375846         0.171124         0.978546
 H        -0.153916         0.926384        -0.715159
 H        -0.420565        -0.770621        -0.764806
 H         2.493445         1.933582        -0.371355
 H         1.442307         1.792812         1.138301
 H         3.972527         0.746884         1.868739
 H         5.027147        -0.370381        -0.146485
 H         3.819225         0.761145        -1.598586
 H         3.934446        -1.105934        -2.073953
 H         1.737524        -1.385784         1.877861
