19
Iteration:  4217charge 0 multiplicity 1
 C        -0.034372         0.036672        -0.009769
 C         1.496223         0.007816        -0.060824
 C         2.191890         1.315352         0.356954
 C         3.279156         0.420858         1.098630
 C         4.015808        -0.463718         0.068973
 C         3.449772        -0.405057        -1.311500
 O         2.006814        -0.406491        -1.354282
 O         3.473443        -1.682133         0.617287
 C         2.442284        -0.907481         1.148628
 H        -0.450258         1.096277        -0.270621
 H        -0.639974        -0.767078        -0.652132
 H        -0.372496        -0.035021         1.006581
 H         2.604640         2.001577        -0.459727
 H         1.595858         1.922933         1.070418
 H         4.099334         0.774254         1.861192
 H         5.165041        -0.487851         0.153087
 H         3.767719         0.596924        -1.727981
 H         3.878080        -1.177295        -1.930000
 H         2.042831        -1.484426         2.050203
