19
Iteration:   935charge 0 multiplicity 1
 C         0.017798        -0.199711        -0.076151
 C         1.496194         0.027721        -0.000916
 C         2.193116         1.370167         0.484044
 C         3.366110         0.539511         1.041601
 C         4.033612        -0.588321         0.039588
 C         3.550376        -0.493584        -1.363783
 O         2.002351        -0.315043        -1.363317
 O         3.363820        -1.686396         0.667167
 C         2.372777        -0.657339         1.119569
 H        -0.560905         0.396669         0.660929
 H        -0.406289         0.156181        -1.085355
 H        -0.217963        -1.278815        -0.064943
 H         2.246761         2.164100        -0.236359
 H         1.627207         1.681776         1.361462
 H         3.863386         0.815388         1.957442
 H         5.136265        -0.658742         0.127976
 H         3.980668         0.306933        -1.923310
 H         3.658821        -1.499247        -1.831007
 H         1.919001        -0.956388         2.047520
