19
Iteration:  1329charge 0 multiplicity 1
 C        -0.047910        -0.108544        -0.048467
 C         1.546028         0.085817        -0.008689
 C         2.228559         1.439334         0.403521
 C         3.334201         0.450628         1.085240
 C         4.041337        -0.544624         0.003266
 C         3.526868        -0.408401        -1.400072
 O         2.052154        -0.485754        -1.321555
 O         3.335030        -1.698436         0.692049
 C         2.355915        -0.713640         1.143062
 H        -0.586946        -0.301148         1.026948
 H        -0.583966         0.792874        -0.670203
 H        -0.204574        -1.080875        -0.666043
 H         2.571223         2.196297        -0.363541
 H         1.555925         1.818829         1.146092
 H         3.901447         0.595664         2.103557
 H         5.186731        -0.787915        -0.117927
 H         3.736535         0.575024        -1.722128
 H         3.989822        -1.160013        -2.050355
 H         1.883234        -1.028570         2.057640
