19
Iteration:  4116charge 0 multiplicity 1
 C        -0.011973        -0.076764         0.006128
 C         1.575789        -0.049308        -0.070827
 C         2.241767         1.379775         0.473129
 C         3.328732         0.438316         1.067563
 C         4.058501        -0.507023         0.054189
 C         3.440356        -0.281990        -1.375406
 O         1.986684        -0.366121        -1.410116
 O         3.363154        -1.751574         0.692917
 C         2.430097        -0.822326         1.096640
 H        -0.491861         0.021262        -0.969323
 H        -0.348228        -1.137319         0.241345
 H        -0.468149         0.720343         0.747965
 H         2.423059         2.120671        -0.327733
 H         1.610006         1.747641         1.292857
 H         3.979636         0.598486         1.927260
 H         5.154945        -0.558216         0.241690
 H         3.775760         0.666972        -1.685328
 H         3.749726        -1.054819        -2.123716
 H         1.724655        -1.131721         1.914529
