19
Iteration:  4468charge 0 multiplicity 1
 C         0.074976        -0.245385        -0.027882
 C         1.547538         0.023516         0.001828
 C         2.272776         1.338687         0.454248
 C         3.384912         0.481940         1.034163
 C         4.005484        -0.601800         0.032023
 C         3.408663        -0.316199        -1.359351
 O         2.014260        -0.246206        -1.346728
 O         3.260939        -1.738634         0.643256
 C         2.449082        -0.734008         1.168259
 H        -0.480468         0.616449        -0.585439
 H        -0.079871        -1.079769        -0.776774
 H        -0.497180        -0.421158         0.848416
 H         2.329557         2.059857        -0.390213
 H         1.713328         1.771438         1.347616
 H         4.051229         0.963596         1.754657
 H         5.096511        -0.828700        -0.020914
 H         3.788933         0.600044        -1.754803
 H         3.630152        -1.228399        -2.037010
 H         1.786913        -0.973038         2.038003
