19
Iteration:  3801charge 0 multiplicity 1
 C         0.017638         0.041297        -0.051366
 C         1.544758        -0.059319        -0.036852
 C         2.322031         1.247801         0.384803
 C         3.345064         0.390839         1.140112
 C         4.033626        -0.413547         0.019079
 C         3.433077        -0.278659        -1.370694
 O         2.017281        -0.576299        -1.304826
 O         3.358747        -1.663422         0.622228
 C         2.324085        -0.751859         1.131263
 H        -0.404539         1.003720         0.234796
 H        -0.427073        -0.307612        -0.986438
 H        -0.385557        -0.740786         0.715583
 H         2.505218         2.044676        -0.337321
 H         1.641827         1.637756         1.116559
 H         3.805662         0.913608         2.029345
 H         5.121790        -0.616095        -0.008467
 H         3.596496         0.781311        -1.740460
 H         3.793170        -1.003933        -2.033545
 H         1.959115        -0.924823         2.138166
