19
Iteration:   329charge 0 multiplicity 1
 C        -0.037667        -0.199097        -0.062717
 C         1.516950         0.037758        -0.074131
 C         2.253458         1.300090         0.385959
 C         3.408257         0.499451         1.119908
 C         4.035995        -0.554684         0.043290
 C         3.469315        -0.306761        -1.334903
 O         2.076135        -0.427475        -1.295748
 O         3.241399        -1.664325         0.583201
 C         2.431974        -0.732296         1.176198
 H        -0.509328         0.080742         0.904194
 H        -0.562171         0.296979        -0.874530
 H        -0.163154        -1.227176        -0.090975
 H         2.568734         2.087043        -0.256869
 H         1.621295         1.912886         1.148975
 H         4.021033         0.790824         1.902860
 H         5.141320        -0.681397         0.123312
 H         3.709756         0.652721        -1.703257
 H         3.776456        -0.944196        -2.025363
 H         1.839477        -0.954603         2.031293
