19
Iteration:  2056charge 0 multiplicity 1
 C         0.041676        -0.018990        -0.059682
 C         1.541552        -0.008983         0.026256
 C         2.183302         1.269058         0.436144
 C         3.373815         0.446347         1.077463
 C         4.056543        -0.496875         0.000051
 C         3.395311        -0.348811        -1.402725
 O         2.022844        -0.405320        -1.324089
 O         3.355922        -1.735445         0.704843
 C         2.405660        -0.743914         1.154812
 H        -0.640430        -0.305630         0.752988
 H        -0.249620         0.927272        -0.699887
 H        -0.113819        -0.739270        -0.938713
 H         2.448498         1.931408        -0.346268
 H         1.653425         1.879369         1.174446
 H         3.845278         0.914547         2.043521
 H         5.112558        -0.453052         0.004305
 H         3.787518         0.431090        -1.970496
 H         3.648592        -1.150055        -2.117245
 H         1.937798        -1.280569         2.029619
