19
Iteration:  3832charge 0 multiplicity 1
 C        -0.009651        -0.117539        -0.103396
 C         1.523454         0.016267         0.053387
 C         2.238137         1.418030         0.438213
 C         3.375454         0.468388         1.103523
 C         4.077788        -0.534316         0.012591
 C         3.432394        -0.355117        -1.389727
 O         2.053623        -0.408762        -1.252611
 O         3.311524        -1.765916         0.582003
 C         2.387680        -0.737958         1.118856
 H        -0.497850         0.808997        -0.237217
 H        -0.212541        -0.739894        -0.925337
 H        -0.475021        -0.698462         0.846549
 H         2.264966         2.169581        -0.413185
 H         1.638443         1.993614         1.229807
 H         3.848799         0.907209         1.975636
 H         5.110189        -0.844676        -0.021650
 H         3.861177         0.509148        -1.809622
 H         3.757121        -1.173476        -2.006284
 H         2.024244        -0.952678         2.095423
