19
Iteration:   197
 C         0.000694        -0.212926        -0.117982
 C         1.525860         0.049689         0.027888
 C         2.194952         1.426629         0.444000
 C         3.389789         0.481431         1.003571
 C         4.028257        -0.636071         0.020588
 C         3.502920        -0.373427        -1.420494
 O         2.034772        -0.402088        -1.246225
 O         3.340581        -1.648222         0.650688
 C         2.365595        -0.737458         1.179953
 H        -0.482951        -0.282222         0.857994
 H        -0.397692         0.695092        -0.583575
 H        -0.184021        -1.089118        -0.742359
 H         2.221741         2.198092        -0.270972
 H         1.593504         1.790903         1.394268
 H         3.989606         0.733375         1.820371
 H         5.143704        -0.676999         0.115904
 H         3.812391         0.722764        -1.741502
 H         3.795040        -0.996369        -2.168321
 H         1.871015        -1.185049         2.003694
