19
Iteration:  1919charge 0 multiplicity 1
 C         0.073109        -0.093836        -0.169829
 C         1.541916        -0.025831         0.050359
 C         2.213974         1.330851         0.503303
 C         3.328756         0.460133         1.058676
 C         4.036091        -0.554400         0.010313
 C         3.406103        -0.419243        -1.382270
 O         1.994109        -0.404057        -1.302081
 O         3.333981        -1.634553         0.668321
 C         2.416974        -0.723809         1.190941
 H        -0.654127         0.024320         0.700492
 H        -0.106127         0.696323        -0.957752
 H        -0.112361        -1.039401        -0.706620
 H         2.482752         2.001023        -0.321024
 H         1.607656         1.847960         1.289307
 H         4.010466         0.855830         1.790404
 H         5.160021        -0.711618        -0.161388
 H         3.844456         0.493014        -1.841749
 H         3.920883        -1.129210        -2.072674
 H         1.853407        -1.027489         2.096015
