19
Iteration:  1622
 C         0.071315        -0.140883         0.015193
 C         1.583227        -0.025830        -0.109688
 C         2.257353         1.348636         0.373569
 C         3.316909         0.537023         1.058384
 C         4.007525        -0.522706         0.119204
 C         3.487129        -0.333696        -1.353716
 O         2.045528        -0.392765        -1.361577
 O         3.327348        -1.764902         0.652497
 C         2.256376        -0.751000         1.139014
 H        -0.143144         0.531703         0.767477
 H        -0.523846         0.232352        -0.907671
 H        -0.184828        -1.203740         0.249686
 H         2.501171         2.122578        -0.383740
 H         1.785960         1.928722         1.226905
 H         3.819840         0.935745         2.012454
 H         5.132955        -0.712165         0.106918
 H         4.012708         0.678081        -1.746510
 H         3.811069        -1.221503        -2.061550
 H         1.526197        -1.031784         1.979389
