19
Iteration:  3524
 C        -0.064671        -0.026856        -0.049715
 C         1.517412        -0.069576        -0.003181
 C         2.214073         1.251446         0.477632
 C         3.354808         0.453423         0.994052
 C         4.056500        -0.503303         0.030697
 C         3.490999        -0.324910        -1.393073
 O         2.058236        -0.430497        -1.324396
 O         3.363460        -1.668660         0.680374
 C         2.381506        -0.739200         1.118046
 H        -0.492803         0.010872         1.002873
 H        -0.468883         0.857594        -0.621818
 H        -0.391244        -0.849754        -0.663546
 H         2.502781         1.949861        -0.308182
 H         1.729731         1.882279         1.217975
 H         3.929762         0.728104         1.880380
 H         5.099156        -0.830764         0.015709
 H         3.762497         0.736821        -1.566629
 H         3.756714        -1.243109        -1.987538
 H         1.883483        -1.070330         2.045783
