19
Iteration:  2093charge 0 multiplicity 1
 C        -0.006333        -0.176339         0.114293
 C         1.523200         0.053510        -0.061992
 C         2.303967         1.333017         0.369970
 C         3.322201         0.457518         1.082000
 C         4.065721        -0.529098         0.080910
 C         3.519889        -0.325298        -1.366680
 O         2.100521        -0.409439        -1.394145
 O         3.219056        -1.698812         0.576447
 C         2.341507        -0.726817         1.125754
 H        -0.374346        -0.118702         1.142348
 H        -0.652226         0.587123        -0.431342
 H        -0.171161        -1.179931        -0.270455
 H         2.567831         2.067048        -0.453205
 H         1.808627         1.881405         1.228592
 H         3.836550         0.870679         1.960427
 H         5.160647        -0.748557         0.163009
 H         3.799167         0.644465        -1.648199
 H         3.843985        -1.207217        -1.948412
 H         1.688771        -1.022183         2.005761
