19
Iteration:  2041
 C        -0.002157         0.021358        -0.205668
 C         1.534419        -0.066556         0.035233
 C         2.189427         1.290809         0.489485
 C         3.333726         0.458360         1.050039
 C         4.010535        -0.506301         0.007691
 C         3.487277        -0.414639        -1.366965
 O         1.977853        -0.423365        -1.258966
 O         3.399075        -1.637811         0.585804
 C         2.434685        -0.796784         1.239134
 H        -0.505198         0.006684         0.843419
 H        -0.236730         0.984561        -0.447770
 H        -0.425251        -0.782828        -0.784015
 H         2.345893         1.988728        -0.398268
 H         1.673093         1.598136         1.387346
 H         4.029578         0.825212         1.736045
 H         5.142445        -0.721664         0.122403
 H         3.780025         0.596715        -1.984934
 H         3.835458        -1.289273        -2.033613
 H         1.938197        -0.984869         2.149319
