19
Iteration:   198charge 0 multiplicity 1
 C        -0.000239        -0.226572        -0.117203
 C         1.520799         0.049141         0.014372
 C         2.204497         1.422940         0.438133
 C         3.397657         0.474469         1.011027
 C         4.037331        -0.633899         0.024451
 C         3.503884        -0.363279        -1.419668
 O         2.034612        -0.404048        -1.243388
 O         3.331551        -1.640418         0.649014
 C         2.363954        -0.738789         1.176302
 H        -0.470289        -0.265726         0.891454
 H        -0.427509         0.689071        -0.576340
 H        -0.213399        -1.022915        -0.730921
 H         2.234860         2.161468        -0.243839
 H         1.628550         1.758601         1.360165
 H         3.985987         0.775596         1.816275
 H         5.136408        -0.682395         0.124181
 H         3.769872         0.739873        -1.718961
 H         3.771339        -1.012462        -2.154983
 H         1.856287        -1.158267         2.020494
