19
Iteration:  3020charge 0 multiplicity 1
 C         0.006581        -0.087969        -0.107021
 C         1.531387         0.036059        -0.005384
 C         2.178692         1.310019         0.492304
 C         3.370832         0.421539         1.074054
 C         4.060514        -0.524833         0.050413
 C         3.440712        -0.355608        -1.328506
 O         2.025437        -0.405657        -1.328167
 O         3.347869        -1.720609         0.618604
 C         2.404629        -0.741507         1.111703
 H        -0.582410         0.641182         0.465340
 H        -0.151451         0.242144        -1.167720
 H        -0.276469        -1.066472         0.200282
 H         2.229994         2.111833        -0.297650
 H         1.668391         1.813147         1.398010
 H         4.122922         0.804983         1.820974
 H         5.246778        -0.512127         0.039012
 H         3.748936         0.620063        -1.725079
 H         3.703623        -1.173459        -2.062151
 H         1.859928        -1.078125         2.036598
