19
Iteration:  1241
 C         0.121808        -0.206996        -0.074978
 C         1.566565        -0.008552        -0.009873
 C         2.287786         1.361949         0.382847
 C         3.361768         0.488193         1.075458
 C         3.988375        -0.573607         0.053228
 C         3.453171        -0.259792        -1.354420
 O         2.051670        -0.477974        -1.253399
 O         3.191430        -1.698992         0.589350
 C         2.362854        -0.658887         1.163996
 H        -0.338253         0.371257         0.766925
 H        -0.421740         0.213110        -0.960637
 H        -0.088211        -1.301313        -0.145662
 H         2.660064         1.923076        -0.482801
 H         1.669320         1.968957         1.033210
 H         3.960898         0.790119         1.994152
 H         5.065015        -0.918690         0.196136
 H         3.613894         0.833383        -1.688332
 H         3.905985        -0.829832        -2.194492
 H         1.834810        -0.850313         2.077998
