19
Iteration:  3555
 C         0.108473        -0.259461         0.046075
 C         1.614611         0.028239        -0.015467
 C         2.253243         1.427159         0.430714
 C         3.325343         0.526261         1.105190
 C         3.990521        -0.567518         0.067605
 C         3.449112        -0.373821        -1.335958
 O         2.044702        -0.334707        -1.319762
 O         3.217489        -1.725935         0.547141
 C         2.354075        -0.732863         1.059876
 H        -0.453940         0.141595         0.953101
 H        -0.430819         0.135854        -0.897582
 H        -0.053358        -1.282368         0.046739
 H         2.734997         1.968165        -0.388500
 H         1.658897         2.222439         0.941457
 H         3.861744         0.677708         2.044735
 H         5.085775        -0.704581         0.086265
 H         4.053877         0.452551        -1.860542
 H         3.924997        -1.164927        -2.002600
 H         1.736034        -0.969309         1.945726
