19
Iteration:  2078charge 0 multiplicity 1
 C         0.033021        -0.155178        -0.008763
 C         1.512560         0.008553        -0.102437
 C         2.319351         1.386479         0.403925
 C         3.314304         0.415998         1.022602
 C         4.003607        -0.590857         0.084656
 C         3.499835        -0.323909        -1.324766
 O         1.959772        -0.388571        -1.321893
 O         3.375109        -1.679327         0.649812
 C         2.315323        -0.728647         1.130573
 H        -0.080701        -0.299907         1.059677
 H        -0.536041         0.780458        -0.447070
 H        -0.420067        -1.009812        -0.602345
 H         2.738668         2.095506        -0.258322
 H         1.686828         1.987179         1.081058
 H         4.079570         0.724049         1.870178
 H         5.069225        -0.619811         0.135586
 H         3.901050         0.664340        -1.741010
 H         3.821457        -1.070907        -2.065187
 H         1.864719        -1.235081         2.054494
