19
Iteration:  1337
 C        -0.003258        -0.128451        -0.018507
 C         1.562663         0.052990        -0.014710
 C         2.264762         1.401027         0.401572
 C         3.373300         0.467739         1.036747
 C         3.986902        -0.575209         0.065262
 C         3.519786        -0.319069        -1.413429
 O         2.089422        -0.536954        -1.292268
 O         3.234819        -1.657940         0.660445
 C         2.347559        -0.717063         1.131161
 H        -0.471504        -0.395108         0.907435
 H        -0.710004         0.679262        -0.487422
 H        -0.022786        -0.969897        -0.739249
 H         2.488752         2.094394        -0.381294
 H         1.657263         1.968059         1.222377
 H         3.903270         0.760232         1.946178
 H         5.125227        -0.714226         0.084153
 H         3.846659         0.645863        -1.802412
 H         3.933207        -1.054585        -2.190108
 H         1.903487        -1.002209         2.099186
