19
Iteration:   408charge 0 multiplicity 1
 C         0.022813        -0.052649        -0.204978
 C         1.550129         0.003532         0.035978
 C         2.140562         1.377217         0.486508
 C         3.346733         0.513897         1.135154
 C         3.996202        -0.530844        -0.046415
 C         3.425563        -0.398736        -1.374634
 O         2.023088        -0.434543        -1.242944
 O         3.438488        -1.711060         0.613419
 C         2.417935        -0.815717         1.192450
 H        -0.424393         0.214571         0.750010
 H        -0.284215         0.750446        -0.891802
 H        -0.280085        -0.968965        -0.719400
 H         2.314756         2.145611        -0.343211
 H         1.404705         1.635521         1.347355
 H         4.178847         0.945432         1.839488
 H         5.141260        -0.555711        -0.098023
 H         3.738679         0.507952        -1.840896
 H         3.703089        -1.217915        -1.955314
 H         1.789524        -1.211555         2.105599
