19
Iteration:  3577
 C         0.065802        -0.295442         0.004868
 C         1.577550         0.061763        -0.052216
 C         2.318699         1.317050         0.403163
 C         3.354590         0.400320         1.088176
 C         3.984984        -0.521735         0.051227
 C         3.501964        -0.329576        -1.406343
 O         2.022538        -0.312549        -1.362502
 O         3.209043        -1.650132         0.629735
 C         2.319231        -0.673017         1.195658
 H        -0.524979         0.329766         0.773717
 H        -0.537637        -0.302818        -0.983982
 H         0.014575        -1.285303         0.319070
 H         2.582889         2.207225        -0.190440
 H         1.857330         1.825501         1.302668
 H         4.084619         0.713180         1.849508
 H         5.008229        -0.908875         0.095664
 H         4.096739         0.550530        -1.967721
 H         4.026580        -1.118106        -2.108120
 H         1.668723        -1.032799         2.021659
