19
Iteration:  2061
 C         0.027995        -0.048946        -0.050544
 C         1.570909         0.023734         0.010598
 C         2.213822         1.306190         0.412570
 C         3.362088         0.443234         1.102184
 C         4.025225        -0.487043        -0.015597
 C         3.362778        -0.364087        -1.362620
 O         2.048540        -0.397516        -1.334690
 O         3.361358        -1.753296         0.725655
 C         2.403432        -0.762676         1.111394
 H        -0.637390        -0.325107         0.778077
 H        -0.349279         0.861579        -0.524788
 H        -0.088923        -0.826448        -0.783133
 H         2.475659         1.906937        -0.519741
 H         1.722472         1.865945         1.263932
 H         3.762546         0.830856         2.000438
 H         5.157871        -0.512976        -0.006449
 H         3.757994         0.582158        -1.960807
 H         3.703441        -1.072251        -2.155040
 H         1.807907        -1.145923         1.967652
