19
Iteration:  4921charge 0 multiplicity 1
 C         0.073584        -0.309582        -0.042921
 C         1.562516         0.074100        -0.018292
 C         2.289386         1.434699         0.485923
 C         3.349770         0.451551         1.048013
 C         4.003211        -0.581450         0.024395
 C         3.512067        -0.343212        -1.356409
 O         2.015385        -0.305951        -1.303852
 O         3.184232        -1.730734         0.509511
 C         2.413009        -0.701044         1.207040
 H        -0.400595         0.045657        -0.868758
 H         0.048832        -1.406898         0.132534
 H        -0.488999         0.258686         0.775964
 H         2.603861         2.218135        -0.289356
 H         1.619252         1.983174         1.202193
 H         4.050565         0.687232         1.943584
 H         5.085914        -0.738855         0.218420
 H         3.899621         0.590670        -1.664391
 H         3.646493        -1.137550        -2.151518
 H         1.757587        -1.130097         2.037465
