19
Iteration:  4461
 C         0.054261        -0.239690        -0.018683
 C         1.624192        -0.015883        -0.019894
 C         2.240008         1.336416         0.419563
 C         3.362823         0.486227         1.008148
 C         4.032087        -0.603606        -0.014176
 C         3.417623        -0.349987        -1.303927
 O         2.014727        -0.188439        -1.358102
 O         3.249209        -1.753712         0.636463
 C         2.395525        -0.715264         1.222333
 H        -0.356692         0.669723        -0.439710
 H        -0.218510        -0.991775        -0.700632
 H        -0.434194        -0.615734         0.960079
 H         2.426101         2.011948        -0.375868
 H         1.602712         1.695105         1.150704
 H         4.018663         0.833966         1.767975
 H         5.104029        -0.673160        -0.103305
 H         3.883164         0.630212        -1.720021
 H         3.668391        -1.155232        -1.895069
 H         2.025733        -1.023958         2.186004
