19
Iteration:  4449
 C         0.057481        -0.191205         0.006410
 C         1.481925        -0.032829         0.018422
 C         2.156926         1.313339         0.376265
 C         3.365938         0.408165         1.026910
 C         3.974383        -0.560785         0.035063
 C         3.530933        -0.399993        -1.414822
 O         2.057840        -0.178699        -1.333436
 O         3.308153        -1.716031         0.630195
 C         2.389904        -0.718527         1.177661
 H        -0.529290         0.721407         0.068930
 H        -0.291411        -0.918710        -0.659461
 H        -0.034775        -0.490571         1.095556
 H         2.501594         1.963328        -0.377335
 H         1.672010         1.920453         1.054766
 H         3.984142         0.663751         1.827255
 H         5.049099        -0.659637         0.104347
 H         4.144336         0.503594        -1.807237
 H         3.730752        -1.175616        -2.074422
 H         1.887134        -0.945769         2.109512
