19
Iteration:   120
 C         0.082461        -0.108539         0.049388
 C         1.577227        -0.046307        -0.035521
 C         2.246412         1.340222         0.333194
 C         3.295080         0.454510         1.091303
 C         4.008677        -0.518665         0.062885
 C         3.462431        -0.257557        -1.322618
 O         2.053664        -0.469497        -1.347116
 O         3.330189        -1.666152         0.606487
 C         2.302550        -0.789584         1.112880
 H        -0.263944         0.408293         0.893047
 H        -0.360200         0.248076        -0.852081
 H        -0.153748        -1.180209         0.169792
 H         2.451047         2.067004        -0.373643
 H         1.538807         1.775945         1.094627
 H         3.898366         0.915366         1.882819
 H         5.142220        -0.631602         0.017797
 H         3.715453         0.783555        -1.679758
 H         3.924736        -0.910158        -1.973384
 H         1.730638        -1.119344         1.974474
