19
Iteration:  3145charge 0 multiplicity 1
 C         0.044213        -0.161023        -0.083618
 C         1.481775         0.036091         0.048965
 C         2.212178         1.387729         0.457262
 C         3.317310         0.417219         0.997824
 C         4.008516        -0.520005         0.047172
 C         3.527506        -0.419496        -1.447408
 O         2.041320        -0.350374        -1.293721
 O         3.311356        -1.677553         0.629033
 C         2.393126        -0.730524         1.217575
 H        -0.593512        -0.285259         0.842939
 H        -0.300412         0.635483        -0.748098
 H         0.124895        -1.157211        -0.734558
 H         2.589832         2.076499        -0.328827
 H         1.758783         1.993978         1.277343
 H         3.913177         0.845508         1.790400
 H         5.074732        -0.702907         0.232602
 H         3.836170         0.451001        -1.959583
 H         3.723746        -1.353232        -1.873521
 H         1.874233        -1.093167         2.089908
