19
Iteration:  1598
 C         0.001794        -0.089090         0.012421
 C         1.512826         0.000404        -0.060206
 C         2.246341         1.276065         0.350256
 C         3.313131         0.444611         1.101729
 C         4.027089        -0.513834         0.077153
 C         3.515226        -0.331672        -1.354404
 O         2.125311        -0.528032        -1.267334
 O         3.279995        -1.607880         0.550002
 C         2.311240        -0.731909         1.180670
 H        -0.376272         0.480996         0.876599
 H        -0.336262         0.583465        -0.888984
 H        -0.355561        -1.104958        -0.199790
 H         2.485918         1.750265        -0.538993
 H         1.714773         2.063322         0.951734
 H         4.093427         0.646182         1.877196
 H         5.110845        -0.526224         0.189034
 H         3.795540         0.868389        -1.554370
 H         3.970183        -0.955149        -2.178511
 H         1.742603        -1.212759         2.058013
