19
Iteration:  1394charge 0 multiplicity 1
 C        -0.031297        -0.110157        -0.060288
 C         1.509833         0.013047        -0.111384
 C         2.301947         1.391670         0.435269
 C         3.331072         0.407597         1.030661
 C         4.025451        -0.495525         0.010462
 C         3.498227        -0.452674        -1.383675
 O         2.045455        -0.384587        -1.289004
 O         3.386830        -1.655921         0.740116
 C         2.295300        -0.773016         1.129107
 H        -0.396981        -0.148234         0.994439
 H        -0.468292         0.789990        -0.690717
 H        -0.383510        -1.085914        -0.495265
 H         2.521970         2.267237        -0.233405
 H         1.681120         1.811414         1.248842
 H         3.930181         0.693062         1.972730
 H         5.190291        -0.438189        -0.069264
 H         3.918714         0.504568        -1.768157
 H         3.633963        -1.368042        -1.985710
 H         1.755077        -1.069323         2.012675
