19
Iteration:  3364charge 0 multiplicity 1
 C        -0.031761         0.013858        -0.125699
 C         1.538515         0.005682         0.015610
 C         2.191012         1.302435         0.470717
 C         3.367566         0.450342         1.109590
 C         3.996545        -0.553873         0.043146
 C         3.414732        -0.342186        -1.324113
 O         2.024484        -0.501671        -1.328781
 O         3.413028        -1.687643         0.577150
 C         2.436405        -0.732308         1.180091
 H        -0.464056         0.579907         0.626390
 H        -0.428694         0.296829        -1.013421
 H        -0.440302        -1.064415        -0.250958
 H         2.233906         2.156292        -0.327116
 H         1.565305         1.785228         1.298801
 H         4.168185         0.894478         1.760333
 H         5.191006        -0.441797         0.042736
 H         3.975931         0.603200        -1.730344
 H         3.805623        -1.144433        -1.992847
 H         1.901410        -1.289085         1.987302
