19
Iteration:  4868
 C         0.008629        -0.022416        -0.060061
 C         1.515769         0.059956        -0.043312
 C         2.232992         1.337217         0.491642
 C         3.321120         0.432080         1.080045
 C         4.043058        -0.530099         0.022063
 C         3.444196        -0.311347        -1.342124
 O         2.014399        -0.448253        -1.343638
 O         3.411149        -1.753068         0.618710
 C         2.396554        -0.788174         1.119697
 H        -0.665986         0.629936        -0.551311
 H        -0.168618        -1.065480        -0.470361
 H        -0.325989         0.128611         0.974989
 H         2.355514         2.226260        -0.129042
 H         1.590195         1.709731         1.289574
 H         3.897876         0.788885         1.988252
 H         5.146984        -0.634263        -0.035221
 H         3.875800         0.624183        -1.873099
 H         3.686110        -1.114287        -2.004505
 H         1.718846        -1.123191         1.995939
