19
Iteration:   649
 C         0.072329        -0.180925        -0.167061
 C         1.564230         0.005698         0.013831
 C         2.255577         1.371547         0.459166
 C         3.382191         0.515845         1.049724
 C         4.001425        -0.519462         0.005057
 C         3.462774        -0.340937        -1.412471
 O         2.019648        -0.404888        -1.234880
 O         3.306097        -1.740004         0.621379
 C         2.312952        -0.737568         1.224765
 H        -0.524834         0.109017         0.698554
 H        -0.186171         0.391216        -1.100314
 H        -0.173967        -1.261525        -0.394441
 H         2.263005         2.282273        -0.209553
 H         1.680415         1.789287         1.352789
 H         4.036464         0.912400         1.891726
 H         5.110671        -0.494137         0.149144
 H         3.773389         0.555555        -1.830377
 H         3.829910        -1.152922        -2.201423
 H         1.823615        -1.105581         2.191678
