19
Iteration:  2234charge 0 multiplicity 1
 C         0.072428        -0.182511        -0.011862
 C         1.551754         0.002478        -0.108677
 C         2.338750         1.366750         0.336849
 C         3.340347         0.498892         1.066469
 C         3.968507        -0.542278         0.073834
 C         3.479458        -0.344177        -1.314014
 O         1.985848        -0.347144        -1.352010
 O         3.281680        -1.740639         0.659892
 C         2.390369        -0.774063         1.173401
 H        -0.359282        -0.296704         0.983724
 H        -0.465927         0.792003        -0.335763
 H        -0.295077        -0.972443        -0.673584
 H         2.680679         1.938734        -0.461689
 H         1.732295         1.912993         1.052788
 H         3.849672         0.773812         2.065646
 H         5.029521        -0.648041        -0.030721
 H         3.785499         0.669817        -1.449387
 H         3.602847        -1.096217        -2.051876
 H         1.922310        -0.893053         2.184307
