19
Iteration:  3676
 C         0.031551        -0.026947         0.018117
 C         1.498514         0.002078        -0.096926
 C         2.237655         1.321151         0.358803
 C         3.324164         0.471567         1.021905
 C         4.021636        -0.471928         0.034353
 C         3.518497        -0.338804        -1.347241
 O         2.032490        -0.462399        -1.334900
 O         3.341794        -1.733178         0.681113
 C         2.363633        -0.768637         1.206102
 H        -0.220164        -0.496245         1.022006
 H        -0.461231         0.989164        -0.094319
 H        -0.435574        -0.721765        -0.688610
 H         2.504041         1.819609        -0.605966
 H         1.505838         1.930115         0.995429
 H         3.857882         0.818435         1.906391
 H         5.114442        -0.560248         0.112299
 H         3.870301         0.602046        -1.752402
 H         3.908815        -1.176552        -2.042692
 H         1.882921        -1.259568         2.071771
