19
Iteration:  4940charge 0 multiplicity 1
 C         0.038106        -0.218259        -0.035585
 C         1.504816         0.055339        -0.026265
 C         2.303565         1.336005         0.562154
 C         3.438193         0.474770         1.056223
 C         4.029165        -0.549507         0.031805
 C         3.437812        -0.318685        -1.373823
 O         2.052006        -0.405854        -1.297688
 O         3.264673        -1.674144         0.599922
 C         2.310708        -0.722085         1.050283
 H        -0.426145         0.225381        -0.993892
 H        -0.141366        -1.261498        -0.191651
 H        -0.623323         0.331484         0.721876
 H         2.487371         2.218229        -0.105577
 H         1.867050         1.834190         1.458651
 H         4.015984         0.680835         1.989052
 H         5.108328        -0.765157        -0.117993
 H         3.597615         0.617635        -1.965695
 H         3.963391        -1.170862        -1.960766
 H         1.797763        -1.040035         1.957718
