19
Iteration:  1462
 C        -0.008585        -0.099504        -0.104591
 C         1.539094         0.002622        -0.018576
 C         2.319844         1.360760         0.336279
 C         3.366640         0.527158         1.087433
 C         4.111545        -0.574909         0.075054
 C         3.491643        -0.317018        -1.306196
 O         1.984462        -0.466275        -1.278420
 O         3.290357        -1.737512         0.621919
 C         2.335043        -0.727754         1.134503
 H        -0.612787         0.468565         0.776345
 H        -0.413087         0.180810        -1.093454
 H        -0.317711        -1.178985         0.129843
 H         2.412053         2.249367        -0.356413
 H         1.703511         1.735128         1.088343
 H         4.123549         0.799094         1.837764
 H         5.201325        -0.712115         0.185633
 H         3.525550         0.806996        -1.450594
 H         3.802000        -0.852986        -2.167649
 H         1.780211        -1.216508         1.912396
