19
Iteration:  2627
 C         0.022178        -0.026340        -0.134103
 C         1.472174        -0.047033         0.048191
 C         2.199937         1.312353         0.481207
 C         3.334990         0.553624         1.064157
 C         4.049977        -0.510284         0.048484
 C         3.472704        -0.417941        -1.359685
 O         2.026790        -0.404165        -1.309669
 O         3.326094        -1.719500         0.547983
 C         2.405651        -0.779158         1.183780
 H        -0.448029         0.370341         0.748625
 H        -0.202399         0.728755        -0.953987
 H        -0.265805        -1.058731        -0.193493
 H         2.481507         1.997147        -0.305292
 H         1.783269         1.741319         1.395629
 H         4.085688         0.929516         1.825154
 H         5.097844        -0.724277         0.050013
 H         3.964089         0.548752        -1.751914
 H         3.896390        -1.242127        -1.870226
 H         1.927667        -1.256752         2.060584
