19
Iteration:  2389charge 0 multiplicity 1
 C         0.040264        -0.157242        -0.169968
 C         1.527609         0.051844        -0.024077
 C         2.219486         1.345325         0.448515
 C         3.386417         0.483703         1.001366
 C         4.073060        -0.629811         0.068887
 C         3.419524        -0.421315        -1.281145
 O         2.000961        -0.316761        -1.267901
 O         3.346735        -1.692621         0.640564
 C         2.351072        -0.693241         1.133316
 H        -0.422202        -0.201219         0.939112
 H        -0.414526         0.702028        -0.557931
 H        -0.039971        -1.215957        -0.515943
 H         2.394700         2.037639        -0.345400
 H         1.765655         1.739371         1.409883
 H         3.957843         0.990122         1.785652
 H         5.180532        -0.792430        -0.064602
 H         3.770788         0.457322        -1.949939
 H         3.696544        -1.261596        -2.028493
 H         1.800387        -0.972782         2.048816
