19
Iteration:  3229charge 0 multiplicity 1
 C        -0.046128        -0.098882        -0.088543
 C         1.477688         0.057899        -0.000525
 C         2.224844         1.396535         0.404907
 C         3.294732         0.405457         1.079111
 C         4.021925        -0.450983         0.035366
 C         3.508944        -0.407873        -1.371209
 O         2.048103        -0.397842        -1.269996
 O         3.385487        -1.750603         0.596297
 C         2.382884        -0.796763         1.172161
 H        -0.489217         0.486001         0.794640
 H        -0.339543         0.209330        -1.047874
 H        -0.304482        -1.109941         0.065043
 H         2.550627         2.078929        -0.381403
 H         1.777200         2.021750         1.229848
 H         3.873144         0.802051         1.852391
 H         5.168171        -0.511257         0.110668
 H         3.986165         0.579763        -1.840444
 H         3.975561        -1.177402        -2.070354
 H         1.946415        -1.192263         2.096623
