19
Iteration:  1289charge 0 multiplicity 1
 C         0.037933         0.001585        -0.076242
 C         1.506562        -0.066433         0.022901
 C         2.128677         1.301072         0.428698
 C         3.259517         0.441437         1.133200
 C         4.067896        -0.468156        -0.031830
 C         3.446703        -0.508850        -1.383748
 O         2.043316        -0.299038        -1.380720
 O         3.447167        -1.699770         0.694546
 C         2.408423        -0.785943         1.219021
 H        -0.371433         0.726358         0.583444
 H        -0.125789         0.437688        -0.955505
 H        -0.480530        -0.897025        -0.167176
 H         2.328218         2.026568        -0.437052
 H         1.452603         1.772535         1.163196
 H         3.965894         0.860025         1.851240
 H         5.110015        -0.408012        -0.036632
 H         4.098755         0.214029        -2.089323
 H         3.632013        -1.456092        -1.889011
 H         1.740605        -1.192223         2.021990
