19
Iteration:   538charge 0 multiplicity 1
 C         0.074175        -0.031159        -0.241293
 C         1.514624        -0.022311         0.058003
 C         2.161735         1.261677         0.470452
 C         3.342418         0.487414         1.075446
 C         4.084957        -0.576528        -0.036524
 C         3.448699        -0.322590        -1.419193
 O         1.971600        -0.424636        -1.208488
 O         3.358414        -1.673517         0.647700
 C         2.451314        -0.770745         1.238941
 H        -0.632922        -0.123770         0.616730
 H        -0.164479         0.859582        -0.882541
 H        -0.102860        -0.911467        -0.909415
 H         2.345436         2.000328        -0.323904
 H         1.551550         1.672667         1.418386
 H         3.982225         0.958061         1.904330
 H         5.238492        -0.670117         0.011521
 H         3.459640         0.770588        -1.654033
 H         3.634982        -1.057435        -2.286431
 H         1.937550        -1.160878         2.140293
