19
Iteration:   554
 C        -0.075351        -0.064146        -0.243050
 C         1.507799        -0.046197         0.074450
 C         2.245925         1.324964         0.541737
 C         3.400716         0.422458         1.070930
 C         3.967850        -0.501331        -0.002698
 C         3.425080        -0.272283        -1.393968
 O         2.066651        -0.529892        -1.287643
 O         3.387002        -1.679824         0.622374
 C         2.407497        -0.709888         1.230956
 H        -0.658316        -0.012673         0.658417
 H        -0.238389         0.827542        -0.814156
 H        -0.370429        -0.946841        -0.773052
 H         2.383976         2.107753        -0.246685
 H         1.705204         1.823156         1.247089
 H         4.083642         0.637646         1.851043
 H         5.003640        -0.604408        -0.137399
 H         3.930206         0.706089        -1.849262
 H         3.832587        -0.976043        -2.049249
 H         1.979146        -0.976882         2.227475
