19
Iteration:  4568charge 0 multiplicity 1
 C         0.072664        -0.145977        -0.022404
 C         1.530854         0.069212         0.013238
 C         2.239254         1.311221         0.469382
 C         3.351960         0.403127         1.107416
 C         4.054654        -0.563834         0.024795
 C         3.418779        -0.335789        -1.336054
 O         1.980746        -0.403689        -1.347376
 O         3.344013        -1.642336         0.563849
 C         2.383002        -0.720201         1.100490
 H        -0.307789        -0.022386        -1.082832
 H        -0.224088        -1.089796         0.325954
 H        -0.572658         0.581802         0.490100
 H         2.611838         2.130152        -0.114913
 H         1.764685         1.749423         1.336728
 H         3.849684         0.608004         1.991861
 H         5.137987        -0.651420        -0.067022
 H         3.712939         0.597649        -1.762954
 H         3.759635        -1.101137        -2.026610
 H         1.919615        -1.196884         1.965581
