19
Iteration:  4235charge 0 multiplicity 1
 C        -0.090676         0.102849        -0.041195
 C         1.489509        -0.012718        -0.027157
 C         2.247948         1.291444         0.441094
 C         3.246171         0.391105         1.106320
 C         4.093829        -0.460158         0.029473
 C         3.512733        -0.300919        -1.420095
 O         2.037573        -0.547936        -1.205428
 O         3.492588        -1.682586         0.572909
 C         2.346719        -0.824788         1.120208
 H        -0.557431         1.019529        -0.282579
 H        -0.347824        -0.601982        -0.814472
 H        -0.476940        -0.186004         0.966606
 H         2.561203         1.845978        -0.377918
 H         1.696178         1.880673         1.155299
 H         3.712884         0.912464         1.939955
 H         5.169046        -0.431451        -0.049170
 H         3.590007         0.559412        -2.140838
 H         3.754127        -1.313720        -1.928031
 H         1.732199        -1.165378         1.956167
