19
Iteration:   562
 C        -0.050911        -0.082274        -0.165684
 C         1.479638         0.006220        -0.013589
 C         2.254823         1.327110         0.533072
 C         3.372588         0.433904         1.022836
 C         4.021565        -0.478200         0.063139
 C         3.442992        -0.282350        -1.360840
 O         2.065422        -0.530324        -1.295534
 O         3.348148        -1.672727         0.626534
 C         2.427643        -0.778228         1.169765
 H        -0.611495         0.032750         0.730864
 H        -0.243954         0.771528        -0.845315
 H        -0.408155        -0.972451        -0.723584
 H         2.656533         2.045222        -0.249842
 H         1.711924         1.831428         1.426714
 H         4.117460         0.776096         1.838472
 H         5.150412        -0.494892         0.042277
 H         3.545819         0.797093        -1.843565
 H         3.703889        -1.123905        -1.972096
 H         1.845019        -1.095215         2.122918
