19
Iteration:  3864charge 0 multiplicity 1
 C         0.025081        -0.186356         0.010330
 C         1.529911        -0.014462        -0.006914
 C         2.222956         1.331920         0.460297
 C         3.353208         0.481898         1.032211
 C         4.006451        -0.568577         0.037146
 C         3.454055        -0.393070        -1.428957
 O         2.089468        -0.199621        -1.398132
 O         3.312382        -1.714656         0.677709
 C         2.332661        -0.787569         1.147879
 H        -0.448555         0.488212        -0.617666
 H        -0.209543        -1.154037        -0.263364
 H        -0.254066         0.057065         1.093769
 H         2.342253         2.138476        -0.337963
 H         1.718038         1.670057         1.438675
 H         4.028848         0.898592         1.738537
 H         5.054378        -0.782403         0.004473
 H         4.084442         0.392681        -1.802722
 H         3.837459        -1.260025        -1.966307
 H         1.786399        -1.099702         2.016428
