19
Iteration:  4156
 C         0.026872        -0.336092        -0.070102
 C         1.514375         0.085484         0.077652
 C         2.294191         1.399754         0.426983
 C         3.437527         0.457814         1.058254
 C         4.041132        -0.544193         0.100346
 C         3.477021        -0.367044        -1.347147
 O         2.028114        -0.318053        -1.222381
 O         3.188614        -1.732780         0.478652
 C         2.388667        -0.671151         1.074039
 H        -0.182054        -0.048736        -1.061327
 H        -0.154068        -1.310870         0.201918
 H        -0.592445         0.293030         0.636250
 H         2.357231         2.152094        -0.370948
 H         1.855219         1.922073         1.269833
 H         3.969330         0.798607         1.897080
 H         5.063452        -0.753572         0.178772
 H         3.676824         0.678526        -1.837031
 H         3.818244        -1.165139        -2.082974
 H         2.022312        -0.965457         2.031529
