19
Iteration:   588
 C         0.104683        -0.100180         0.074244
 C         1.569764         0.000777        -0.054491
 C         2.157083         1.356287         0.356050
 C         3.272467         0.432519         1.139862
 C         3.995264        -0.542277         0.107915
 C         3.487009        -0.316425        -1.334517
 O         2.092242        -0.416333        -1.348676
 O         3.370042        -1.693172         0.564756
 C         2.311086        -0.759658         1.073494
 H        -0.255326         0.309855         1.045875
 H        -0.346705         0.538172        -0.667903
 H        -0.256066        -1.087849        -0.119132
 H         2.473773         1.921548        -0.510390
 H         1.500753         1.852087         0.966390
 H         3.764577         0.611292         2.035756
 H         5.058021        -0.569992         0.028300
 H         3.867675         0.698361        -1.790167
 H         3.780636        -1.207008        -1.891172
 H         1.714367        -1.088331         1.896721
