19
Iteration:     8charge 0 multiplicity 1
 C         0.036156        -0.128837        -0.040348
 C         1.570615        -0.037200         0.009140
 C         2.130469         1.353704         0.378357
 C         3.285398         0.438474         1.076022
 C         4.043978        -0.539025         0.054438
 C         3.438692        -0.366203        -1.360484
 O         2.043994        -0.385881        -1.284430
 O         3.385189        -1.683813         0.642154
 C         2.418590        -0.701386         1.068421
 H        -0.469032         0.122002         0.847500
 H        -0.342229         0.613244        -0.697112
 H        -0.382468        -1.182096        -0.280114
 H         2.420200         2.092511        -0.295539
 H         1.693066         1.900627         1.268202
 H         3.907959         0.881946         1.965647
 H         5.219606        -0.594205         0.038465
 H         3.921260         0.428913        -1.949909
 H         3.736369        -1.192630        -1.963474
 H         1.806110        -1.110273         1.921521
