19
Iteration:  1301
 C         0.056705         0.028342        -0.101593
 C         1.557933        -0.052412         0.024414
 C         2.184025         1.221696         0.395111
 C         3.324804         0.490895         1.022800
 C         3.985742        -0.435220         0.077329
 C         3.431824        -0.499666        -1.353145
 O         1.992807        -0.278266        -1.366084
 O         3.446112        -1.659705         0.723991
 C         2.381265        -0.866747         1.130105
 H        -0.409509         0.378504         0.740130
 H        -0.110432         0.583584        -0.949858
 H        -0.298995        -0.955913        -0.197720
 H         2.289935         1.973900        -0.408180
 H         1.599833         1.677685         1.247986
 H         3.855566         0.800775         1.865332
 H         5.017635        -0.572221         0.037295
 H         3.804447         0.358280        -2.044954
 H         3.726925        -1.521210        -1.617871
 H         1.899960        -1.273682         2.067212
