19
Iteration:  2563
 C         0.054356        -0.064708        -0.042000
 C         1.547576        -0.017419        -0.008940
 C         2.249246         1.302194         0.359415
 C         3.309800         0.427237         1.129498
 C         4.004629        -0.522485         0.077325
 C         3.493063        -0.346031        -1.403331
 O         2.039054        -0.360699        -1.342638
 O         3.316511        -1.694775         0.645178
 C         2.372675        -0.776287         1.157607
 H        -0.245252        -0.136422         1.098081
 H        -0.521034         0.727986        -0.536887
 H        -0.266162        -1.006046        -0.583119
 H         2.685728         1.855924        -0.514683
 H         1.609286         1.957778         1.055306
 H         3.819352         0.905188         2.010492
 H         5.057421        -0.734080        -0.004829
 H         3.827768         0.581312        -1.830506
 H         3.606068        -1.227262        -2.050431
 H         1.825880        -0.987142         2.086447
