19
Iteration:  2346
 C         0.003957        -0.089523         0.028077
 C         1.531603         0.012287        -0.099971
 C         2.263823         1.310533         0.359059
 C         3.357616         0.440118         1.065299
 C         4.081165        -0.529178         0.078878
 C         3.472689        -0.317611        -1.320228
 O         2.032668        -0.450483        -1.294960
 O         3.286655        -1.634245         0.585031
 C         2.325790        -0.762940         1.115236
 H        -0.427354         0.455329         0.980692
 H        -0.411061         0.433980        -0.786856
 H        -0.149971        -1.190105         0.050921
 H         2.689496         1.926882        -0.378231
 H         1.641516         1.664267         1.119864
 H         3.917717         0.823202         1.875389
 H         5.189401        -0.677263         0.288819
 H         3.977122         0.624277        -1.656990
 H         3.736683        -1.201690        -2.006881
 H         1.747656        -1.186359         1.956127
