19
Iteration:   495
 C         0.025181        -0.127216         0.085968
 C         1.549930         0.025681        -0.087256
 C         2.223999         1.335563         0.419431
 C         3.245471         0.417853         1.160817
 C         4.092585        -0.508542         0.085562
 C         3.495184        -0.355042        -1.443525
 O         2.077341        -0.387876        -1.403783
 O         3.324855        -1.621403         0.619095
 C         2.320557        -0.793890         1.061389
 H        -0.139896         0.165097         1.136138
 H        -0.672280         0.451771        -0.544600
 H        -0.319975        -1.156730        -0.127707
 H         2.763653         1.840973        -0.385595
 H         1.476012         1.841760         1.173103
 H         3.824229         0.851028         2.073147
 H         5.166093        -0.787872         0.426505
 H         4.022944         0.696690        -1.892843
 H         3.735932        -1.329900        -1.821407
 H         1.736839        -1.272400         1.925032
