19
Iteration:   984charge 0 multiplicity 1
 C         0.093776        -0.076216         0.034162
 C         1.557679        -0.025819        -0.042963
 C         2.207898         1.343379         0.235661
 C         3.267263         0.476622         1.075885
 C         4.084603        -0.524747         0.141421
 C         3.434846        -0.305210        -1.287683
 O         2.053875        -0.510293        -1.311164
 O         3.317220        -1.653626         0.573105
 C         2.364385        -0.809052         1.163725
 H        -0.322270         0.252912         0.975555
 H        -0.380208         0.702211        -0.556562
 H        -0.238366        -0.972285        -0.465962
 H         2.759696         1.833278        -0.557459
 H         1.594845         2.031338         0.841211
 H         3.775084         0.968265         1.961755
 H         5.156634        -0.695076         0.253844
 H         3.572238         0.827462        -1.596922
 H         3.829146        -0.977042        -2.055652
 H         1.654740        -1.223512         1.971135
