19
Iteration:  3188charge 0 multiplicity 1
 C         0.073545        -0.019158        -0.022119
 C         1.566283        -0.021009        -0.017323
 C         2.251659         1.326275         0.387947
 C         3.243907         0.433661         1.087751
 C         4.014289        -0.502982         0.029983
 C         3.514099        -0.239957        -1.411123
 O         2.060975        -0.535915        -1.372168
 O         3.344991        -1.703985         0.654905
 C         2.318404        -0.814819         1.195341
 H        -0.408536         0.620794         0.733075
 H        -0.415428         0.356319        -0.864055
 H        -0.407175        -1.023323         0.296039
 H         2.436645         2.092146        -0.411698
 H         1.588380         1.818367         1.167126
 H         3.924941         0.688376         1.871674
 H         5.147253        -0.423773         0.175269
 H         3.612127         0.805406        -1.605921
 H         3.869129        -0.851233        -2.200691
 H         1.837444        -1.119122         2.111176
