19
Iteration:  1205
 C         0.027574        -0.179069        -0.034549
 C         1.518354        -0.007529        -0.056949
 C         2.247698         1.319393         0.374705
 C         3.341174         0.463473         1.036807
 C         4.074943        -0.548952         0.117770
 C         3.495801        -0.382200        -1.311460
 O         2.027886        -0.336892        -1.300361
 O         3.300507        -1.698951         0.648233
 C         2.357970        -0.659817         1.040244
 H        -0.173082        -0.221674         1.002216
 H        -0.591522         0.696696        -0.599019
 H        -0.327267        -1.217361        -0.292948
 H         2.443122         1.945884        -0.434091
 H         1.685398         1.961469         1.099770
 H         3.790371         0.701236         1.940105
 H         5.178965        -0.764572         0.206150
 H         3.900949         0.544177        -1.724251
 H         3.694163        -1.268552        -1.957195
 H         1.845931        -0.785021         1.996973
