19
Iteration:  4883
 C        -0.006111        -0.198458         0.023058
 C         1.512551         0.027616        -0.086621
 C         2.233015         1.385838         0.458147
 C         3.364613         0.452341         1.046893
 C         4.056494        -0.604128         0.066302
 C         3.478959        -0.359828        -1.357700
 O         2.007371        -0.275887        -1.359639
 O         3.312005        -1.715305         0.625340
 C         2.398663        -0.770912         1.121249
 H        -0.360344         0.483943        -0.922689
 H        -0.461923        -1.200718        -0.141882
 H        -0.366710         0.079707         1.012862
 H         2.624588         2.031572        -0.304858
 H         1.720901         1.851294         1.299674
 H         3.955679         0.618678         1.921786
 H         5.146654        -0.671141         0.102081
 H         3.759724         0.729321        -1.616525
 H         3.951023        -1.056786        -2.073426
 H         1.922411        -1.114517         2.016700
