19
Iteration:  3729charge 0 multiplicity 1
 C         0.104820        -0.258182        -0.069173
 C         1.531890         0.137604         0.005050
 C         2.282627         1.465389         0.458816
 C         3.361970         0.486879         1.009043
 C         3.982822        -0.593318         0.020305
 C         3.413267        -0.462112        -1.407377
 O         2.029378        -0.375667        -1.311522
 O         3.295785        -1.723597         0.648572
 C         2.374106        -0.640871         1.188518
 H        -0.544237        -0.286261         0.883904
 H        -0.476917         0.381204        -0.873296
 H         0.156229        -1.240025        -0.482264
 H         2.553338         2.328259        -0.231785
 H         1.685116         1.840332         1.415381
 H         3.849568         0.849371         1.944883
 H         5.095501        -0.741372         0.122752
 H         3.866394         0.427272        -1.822410
 H         3.681640        -1.397044        -2.034807
 H         1.774788        -1.112925         2.027001
