19
Iteration:  1741
 C         0.048597        -0.025847         0.024964
 C         1.575144        -0.059480        -0.114752
 C         2.214275         1.362522         0.328832
 C         3.230183         0.501393         1.106235
 C         4.007290        -0.502486         0.097397
 C         3.538704        -0.337228        -1.423398
 O         2.049096        -0.469979        -1.272731
 O         3.326550        -1.706080         0.678187
 C         2.380258        -0.797702         1.125867
 H        -0.241446         0.068400         1.032710
 H        -0.269901         0.857935        -0.714981
 H        -0.361815        -1.014293        -0.355639
 H         2.686967         1.839458        -0.478780
 H         1.504536         2.145348         0.711368
 H         3.867630         0.762657         1.997295
 H         5.070892        -0.600769         0.260583
 H         3.674309         0.609446        -1.807719
 H         3.777655        -1.146875        -2.053555
 H         1.811117        -1.322432         1.987662
