19
Iteration:  2643
 C        -0.034903        -0.124309        -0.110497
 C         1.558589         0.051188        -0.039058
 C         2.231915         1.335304         0.474157
 C         3.356029         0.329586         1.041008
 C         4.037346        -0.522795         0.039006
 C         3.467301        -0.382614        -1.363750
 O         2.042237        -0.315006        -1.233885
 O         3.359798        -1.694363         0.649480
 C         2.373895        -0.728723         1.102806
 H        -0.578816         0.424675         0.781544
 H        -0.260747         0.468915        -0.997077
 H        -0.316107        -1.271405        -0.136607
 H         2.331053         2.120682        -0.321419
 H         1.567934         1.843279         1.214858
 H         3.935877         0.613322         1.887421
 H         5.194800        -0.631517        -0.019194
 H         3.875469         0.398593        -1.961414
 H         3.571919        -1.311600        -2.041648
 H         1.830653        -0.914960         2.029082
