19
Iteration:   995
 C        -0.034719        -0.022362        -0.064827
 C         1.519645        -0.023720        -0.074583
 C         2.280771         1.270458         0.317519
 C         3.337058         0.488086         1.108913
 C         4.038686        -0.456990         0.062242
 C         3.516159        -0.282928        -1.289714
 O         2.042029        -0.576583        -1.226889
 O         3.297665        -1.662118         0.591064
 C         2.375927        -0.753501         1.137225
 H        -0.323585        -0.094439         0.987576
 H        -0.448887         0.802339        -0.613912
 H        -0.436118        -0.981495        -0.379863
 H         2.523068         1.932844        -0.513871
 H         1.554082         1.875427         0.865717
 H         4.044526         0.830906         1.905355
 H         5.120495        -0.526884         0.132789
 H         3.773116         0.758746        -1.762099
 H         3.922038        -1.009205        -2.007653
 H         1.896247        -1.322928         2.004928
