19
Iteration:   331
 C        -0.030711        -0.191971        -0.035181
 C         1.529028         0.038645        -0.086319
 C         2.236713         1.293151         0.368930
 C         3.409037         0.470713         1.116213
 C         4.040515        -0.550292         0.046154
 C         3.468016        -0.288521        -1.338596
 O         2.082558        -0.427238        -1.302058
 O         3.240116        -1.666368         0.585997
 C         2.418128        -0.714968         1.183887
 H        -0.464259         0.099352         0.971407
 H        -0.603092         0.289983        -0.858208
 H        -0.132997        -1.277061        -0.177252
 H         2.613647         2.103011        -0.331474
 H         1.541904         1.895271         1.136115
 H         4.096217         0.773631         2.004260
 H         5.158038        -0.664474         0.145757
 H         3.709780         0.694794        -1.731659
 H         3.789157        -1.023918        -2.047033
 H         1.743485        -0.994595         2.085821
