19
Iteration:   200
 C         0.000033        -0.241786        -0.109753
 C         1.511924         0.045283        -0.010664
 C         2.221096         1.404590         0.435680
 C         3.406388         0.460599         1.021613
 C         4.055281        -0.622743         0.029955
 C         3.502129        -0.335869        -1.410214
 O         2.035391        -0.408283        -1.240136
 O         3.313457        -1.630577         0.646162
 C         2.363032        -0.736734         1.166318
 H        -0.440748        -0.245346         0.937775
 H        -0.484016         0.669189        -0.563140
 H        -0.281830        -0.973649        -0.753491
 H         2.276710         2.169394        -0.267489
 H         1.704702         1.702080         1.286101
 H         4.010262         0.872948         1.841861
 H         5.125098        -0.703390         0.134120
 H         3.692571         0.729006        -1.671746
 H         3.742676        -1.092634        -2.179993
 H         1.820195        -1.106618         2.070545
