19
Iteration:   828charge 0 multiplicity 1
 C        -0.045109        -0.037627         0.015322
 C         1.511191        -0.026749        -0.117386
 C         2.245823         1.274307         0.323581
 C         3.254323         0.444335         1.058605
 C         4.057210        -0.474714         0.121594
 C         3.539911        -0.384591        -1.308259
 O         2.040804        -0.453486        -1.295797
 O         3.399137        -1.622198         0.595618
 C         2.354055        -0.779743         1.123071
 H        -0.296817         0.241515         1.098345
 H        -0.480141         0.690079        -0.610569
 H        -0.460805        -1.010450        -0.258206
 H         2.550599         2.055673        -0.467342
 H         1.601177         1.776691         1.055372
 H         3.835844         0.837748         1.927228
 H         5.104357        -0.483305         0.294715
 H         3.856665         0.442018        -1.979726
 H         3.853211        -1.319878        -1.775046
 H         1.853354        -1.123611         2.120352
