19
Iteration:  4754
 C         0.004449        -0.323462         0.065396
 C         1.539839         0.097530         0.055754
 C         2.258330         1.369148         0.480340
 C         3.346492         0.409737         1.075848
 C         4.074388        -0.566529         0.034143
 C         3.544750        -0.390966        -1.398151
 O         2.091980        -0.207804        -1.302490
 O         3.212388        -1.694335         0.515075
 C         2.299379        -0.702351         1.040346
 H        -0.410761         0.039340        -0.853532
 H         0.055497        -1.363393         0.138766
 H        -0.540888         0.154557         0.868159
 H         2.414721         2.003416        -0.430448
 H         1.702943         2.068174         1.170288
 H         3.998174         0.515432         1.950081
 H         5.135459        -0.726191         0.274086
 H         4.094147         0.392087        -1.949827
 H         3.676309        -1.394610        -1.965686
 H         1.653774        -0.881966         1.953700
