19
Iteration:  1060
 C        -0.033934        -0.181835        -0.087212
 C         1.518038        -0.011509         0.013410
 C         2.209546         1.362933         0.440335
 C         3.301032         0.413553         1.044822
 C         4.066411        -0.505066         0.023250
 C         3.576409        -0.516708        -1.375888
 O         1.982791        -0.219935        -1.364784
 O         3.359419        -1.624011         0.737074
 C         2.392470        -0.794004         1.126708
 H        -0.588044         0.167339         0.891955
 H        -0.506660         0.488424        -0.831359
 H        -0.328214        -1.230116        -0.353588
 H         2.460931         2.046504        -0.383975
 H         1.753801         1.979303         1.175121
 H         4.004158         0.735198         1.876541
 H         5.123387        -0.556722         0.089179
 H         4.093453         0.215239        -2.035156
 H         3.783311        -1.424709        -1.934992
 H         1.831281        -1.038981         2.131670
