19
Iteration:  2846charge 0 multiplicity 1
 C        -0.066145        -0.223352        -0.021709
 C         1.516231        -0.019938        -0.049894
 C         2.299314         1.399433         0.467194
 C         3.356303         0.415036         1.062645
 C         4.060082        -0.541774         0.001812
 C         3.587172        -0.304195        -1.334785
 O         2.026098        -0.322400        -1.306315
 O         3.250229        -1.739815         0.639739
 C         2.348041        -0.702358         1.092696
 H        -0.236297         0.165311         0.978479
 H        -0.519092         0.141045        -0.995804
 H        -0.290848        -1.262173        -0.194560
 H         2.538084         2.014082        -0.384766
 H         1.743034         2.081126         1.163943
 H         4.057973         0.562822         1.901478
 H         5.112894        -0.691538         0.186414
 H         3.901448         0.628601        -1.719337
 H         3.764147        -1.027790        -2.098610
 H         1.755504        -0.809775         2.017425
