19
Iteration:  1177charge 0 multiplicity 1
 C         0.042308        -0.006838        -0.129340
 C         1.542306         0.014830        -0.056404
 C         2.148168         1.293397         0.579578
 C         3.237875         0.459232         1.035606
 C         3.973694        -0.450735         0.041087
 C         3.476409        -0.552670        -1.447697
 O         2.062011        -0.374272        -1.379228
 O         3.462251        -1.680895         0.707503
 C         2.353182        -0.753874         1.185485
 H        -0.252974        -0.019089         1.015214
 H        -0.440619         0.799523        -0.496930
 H        -0.213826        -0.953007        -0.565903
 H         2.449725         2.141161        -0.209955
 H         1.518116         1.793294         1.308038
 H         4.057085         0.892929         1.765508
 H         5.069678        -0.430118         0.231405
 H         4.053547         0.151349        -2.169563
 H         3.731748        -1.475025        -1.979509
 H         1.816018        -0.978691         2.153024
