19
Iteration:  3843
 C        -0.066054        -0.165633        -0.075539
 C         1.462696         0.049335         0.020023
 C         2.201668         1.309207         0.442799
 C         3.380614         0.446620         0.976855
 C         4.105165        -0.589607         0.035873
 C         3.571232        -0.384761        -1.345977
 O         1.984282        -0.293646        -1.246244
 O         3.314848        -1.714885         0.605483
 C         2.416409        -0.681041         1.111348
 H        -0.566140         0.729028        -0.333523
 H        -0.249141        -0.910647        -0.796294
 H        -0.443855        -0.474577         0.999223
 H         2.547244         2.036931        -0.342216
 H         1.745910         1.777561         1.374123
 H         3.997983         0.613985         1.843960
 H         5.188913        -0.658233         0.091816
 H         3.952243         0.506761        -1.768336
 H         3.794766        -1.245225        -1.963648
 H         1.845705        -0.964490         1.966317
