19
Iteration:  2114
 C         0.142389        -0.156686         0.043720
 C         1.574290        -0.011813        -0.041058
 C         2.162243         1.370760         0.395162
 C         3.342114         0.446790         1.043697
 C         3.973558        -0.574456         0.027082
 C         3.558683        -0.308337        -1.371185
 O         2.084030        -0.373958        -1.249168
 O         3.214756        -1.709174         0.551693
 C         2.329154        -0.720668         1.125578
 H        -0.253333         0.383027         0.898069
 H        -0.369978         0.479370        -0.807908
 H        -0.189055        -1.201485         0.130269
 H         2.536670         1.898739        -0.495703
 H         1.512279         1.986513         1.095321
 H         4.045458         0.690594         1.898543
 H         5.041761        -0.647861         0.222217
 H         3.881418         0.666344        -1.753822
 H         3.697694        -1.238890        -1.950373
 H         1.788684        -1.153544         2.048496
