19
Iteration:   875
 C         0.025444        -0.131092        -0.058484
 C         1.513570         0.002231        -0.086868
 C         2.283871         1.359516         0.348395
 C         3.306371         0.496439         1.032733
 C         4.062398        -0.514451         0.046039
 C         3.455434        -0.315677        -1.307978
 O         2.056445        -0.514990        -1.294994
 O         3.336178        -1.705671         0.701163
 C         2.311860        -0.728313         1.102388
 H        -0.095462         0.056299         1.071586
 H        -0.552850         0.686267        -0.613136
 H        -0.301194        -1.178936        -0.335218
 H         2.568885         2.227948        -0.378386
 H         1.741283         1.885143         1.291269
 H         3.733822         0.857339         2.043241
 H         5.232499        -0.585881        -0.079153
 H         3.781405         0.661272        -1.612402
 H         3.886000        -0.989566        -2.012810
 H         1.679124        -1.040465         2.013898
