19
Iteration:   737
 C         0.080265        -0.123223         0.116919
 C         1.547148         0.030419        -0.101956
 C         2.263957         1.310028         0.328335
 C         3.253089         0.482461         1.091998
 C         4.002142        -0.493102         0.125881
 C         3.536498        -0.292287        -1.308173
 O         2.061196        -0.445875        -1.398711
 O         3.298965        -1.682548         0.641673
 C         2.314236        -0.767717         1.071066
 H        -0.217340         0.173507         1.121748
 H        -0.603768         0.476614        -0.547914
 H        -0.094762        -1.205670        -0.095725
 H         2.563568         1.937350        -0.510812
 H         1.618822         1.870104         0.975933
 H         3.747862         0.852220         1.970034
 H         5.045642        -0.697963         0.072926
 H         4.003099         0.462042        -1.947782
 H         3.887889        -1.226110        -1.930480
 H         1.780336        -1.263774         1.918256
