19
Iteration:  1824charge 0 multiplicity 1
 C        -0.026545        -0.227815        -0.060854
 C         1.514502        -0.011241        -0.068726
 C         2.271815         1.365524         0.392598
 C         3.401812         0.527250         1.068827
 C         4.100521        -0.571786         0.061209
 C         3.408711        -0.368778        -1.321668
 O         2.074350        -0.347103        -1.314239
 O         3.259588        -1.733749         0.644770
 C         2.350098        -0.656473         1.168089
 H        -0.584560         0.334098         0.724141
 H        -0.342315         0.153663        -0.949445
 H        -0.292381        -1.251825        -0.127942
 H         2.590321         2.033128        -0.472099
 H         1.933668         1.930493         1.200825
 H         3.851472         0.956197         1.958350
 H         5.177099        -0.760333         0.152726
 H         3.939411         0.507995        -1.775767
 H         3.790795        -1.139059        -2.034518
 H         1.803147        -1.069914         1.967934
