19
Iteration:  3525
 C        -0.062133        -0.028466        -0.044405
 C         1.518607        -0.056485        -0.005672
 C         2.217514         1.248001         0.475673
 C         3.355641         0.451995         0.984005
 C         4.060616        -0.503386         0.037531
 C         3.488176        -0.324652        -1.393804
 O         2.059296        -0.427322        -1.322468
 O         3.359687        -1.667580         0.675461
 C         2.370238        -0.747014         1.123670
 H        -0.478421         0.019891         1.000394
 H        -0.491400         0.809009        -0.612818
 H        -0.391978        -0.902555        -0.681400
 H         2.501314         1.968700        -0.307324
 H         1.743439         1.891002         1.202352
 H         3.926643         0.735872         1.879236
 H         5.137397        -0.813049         0.026615
 H         3.785474         0.739997        -1.566149
 H         3.757933        -1.254027        -1.976092
 H         1.887282        -1.078503         2.067318
