19
Iteration:  3326
 C         0.028260        -0.021848        -0.015233
 C         1.526810        -0.013926        -0.028460
 C         2.229504         1.293000         0.382964
 C         3.308756         0.487770         1.117557
 C         3.953831        -0.526717         0.028222
 C         3.495012        -0.281550        -1.384309
 O         2.049005        -0.510355        -1.328387
 O         3.415604        -1.677965         0.632960
 C         2.346526        -0.794321         1.167550
 H        -0.362627        -0.152786         1.088891
 H        -0.199443         1.080929        -0.426954
 H        -0.331959        -0.865227        -0.525993
 H         2.467110         1.819930        -0.505531
 H         1.602525         1.918835         0.997955
 H         3.895338         0.758187         1.992478
 H         5.003823        -0.604867         0.105206
 H         3.762924         0.653270        -1.827892
 H         3.848354        -1.021108        -2.118678
 H         1.681900        -1.208396         1.933387
