19
Iteration:  4294charge 0 multiplicity 1
 C        -0.023963        -0.236381        -0.028306
 C         1.553208        -0.017526         0.013209
 C         2.271548         1.380718         0.485733
 C         3.329681         0.398951         0.996733
 C         4.052723        -0.603104        -0.020096
 C         3.505652        -0.329085        -1.324885
 O         2.026044        -0.260968        -1.280904
 O         3.305858        -1.697278         0.626364
 C         2.343938        -0.699136         1.077214
 H        -0.541271         0.298935        -0.917615
 H        -0.297817        -1.355586        -0.014536
 H        -0.532484         0.011324         0.888140
 H         2.304641         1.959971        -0.437306
 H         2.122146         2.033104         1.323122
 H         3.881990         0.784393         1.902636
 H         5.179650        -0.714766        -0.138535
 H         3.988546         0.679788        -1.687724
 H         3.880227        -1.033334        -2.028876
 H         1.771850        -0.982245         1.993062
