19
Iteration:  4095
 C         0.003738         0.027692        -0.015452
 C         1.483694         0.019467        -0.050916
 C         2.223561         1.230888         0.450307
 C         3.293573         0.379328         1.101196
 C         4.014048        -0.499285         0.066644
 C         3.455412        -0.356707        -1.354089
 O         2.037316        -0.444776        -1.289164
 O         3.503035        -1.648587         0.588365
 C         2.335967        -0.802363         1.034390
 H        -0.415419         0.591130        -0.851357
 H        -0.495895        -0.988735        -0.065878
 H        -0.228525         0.621141         0.927744
 H         2.270787         2.066583        -0.344982
 H         1.581421         1.539940         1.322628
 H         3.784397         0.928081         1.912193
 H         5.155105        -0.561281         0.043708
 H         3.748231         0.596529        -1.679948
 H         3.866261        -1.121437        -2.024804
 H         1.837176        -1.091822         1.990346
