19
Iteration:  4465
 C         0.064772        -0.240128        -0.014830
 C         1.592540         0.006883        -0.013893
 C         2.268265         1.335875         0.439746
 C         3.364301         0.486943         1.017045
 C         4.021615        -0.606325         0.009610
 C         3.405135        -0.323413        -1.325904
 O         2.017185        -0.217921        -1.356690
 O         3.250931        -1.747999         0.640453
 C         2.429910        -0.726659         1.194161
 H        -0.399882         0.595961        -0.537379
 H        -0.169920        -1.058121        -0.785618
 H        -0.493169        -0.526330         0.866532
 H         2.359642         2.052203        -0.446472
 H         1.614814         1.730223         1.322349
 H         4.079102         0.950965         1.798176
 H         5.125492        -0.762956        -0.076516
 H         3.787834         0.618330        -1.720462
 H         3.633419        -1.253657        -1.971753
 H         1.877196        -1.004849         2.145771
