19
Iteration:  3098
 C        -0.056738        -0.130326        -0.026381
 C         1.508436         0.063252        -0.025505
 C         2.259648         1.345413         0.457239
 C         3.307244         0.430015         0.971030
 C         3.997113        -0.519759         0.009431
 C         3.564812        -0.351438        -1.375520
 O         2.085294        -0.368063        -1.342102
 O         3.346484        -1.736014         0.717413
 C         2.327615        -0.753173         1.118227
 H        -0.199361        -0.385782         1.086260
 H        -0.623302         0.749103        -0.241762
 H        -0.232957        -1.005975        -0.655715
 H         2.371709         1.943284        -0.472564
 H         1.638977         1.897834         1.253152
 H         3.877968         0.796022         1.820205
 H         5.164259        -0.462826         0.073275
 H         4.011802         0.510082        -1.747759
 H         3.826404        -1.267344        -1.916915
 H         1.822034        -1.036651         2.057366
