19
Iteration:  3270
 C         0.053293        -0.260788        -0.080041
 C         1.557042         0.054182        -0.034270
 C         2.232514         1.400629         0.491582
 C         3.333777         0.515312         0.983134
 C         3.991874        -0.574219        -0.014035
 C         3.499888        -0.424915        -1.373004
 O         2.043362        -0.322430        -1.374291
 O         3.259197        -1.727397         0.714517
 C         2.431198        -0.717270         1.243173
 H        -0.282827        -0.231084         1.002882
 H        -0.563162         0.644360        -0.662410
 H        -0.128426        -1.043759        -0.817355
 H         2.415867         2.261466        -0.121603
 H         1.679195         1.735140         1.351874
 H         4.064912         0.868593         1.794378
 H         5.030704        -0.614141         0.075312
 H         3.798988         0.528125        -1.749260
 H         3.644706        -1.151753        -2.189207
 H         1.767326        -1.035342         2.079013
