19
Iteration:  3719charge 0 multiplicity 1
 C         0.098826        -0.252975        -0.109372
 C         1.550580         0.127529         0.012516
 C         2.224411         1.435816         0.417314
 C         3.368509         0.401839         0.974356
 C         4.010432        -0.587869         0.011439
 C         3.458180        -0.388821        -1.360397
 O         2.037197        -0.359174        -1.230387
 O         3.249861        -1.694053         0.690227
 C         2.364030        -0.680091         1.115239
 H        -0.212830        -0.474504         0.984774
 H        -0.635355         0.511983        -0.627452
 H         0.115963        -1.259773        -0.598861
 H         2.475634         2.262148        -0.346533
 H         1.781398         1.919614         1.446345
 H         4.165396         0.767010         1.663496
 H         5.110478        -0.753965         0.102292
 H         3.778652         0.356540        -1.976121
 H         3.598927        -1.333871        -2.029726
 H         1.788428        -0.724291         2.099031
