19
Iteration:   812charge 0 multiplicity 1
 C         0.022752        -0.060433        -0.112150
 C         1.505135         0.050795         0.045393
 C         2.145445         1.381467         0.450102
 C         3.335692         0.476741         1.044409
 C         4.071892        -0.480923         0.024733
 C         3.466615        -0.446957        -1.363315
 O         2.050286        -0.464229        -1.313969
 O         3.401357        -1.713766         0.709283
 C         2.356022        -0.750225         1.098997
 H        -0.505921         0.072705         0.799460
 H        -0.304237         0.541854        -1.021808
 H        -0.263656        -1.130072        -0.218680
 H         2.341818         2.000524        -0.368263
 H         1.640156         2.009651         1.198451
 H         3.914595         0.830504         1.889259
 H         5.200478        -0.584469        -0.045642
 H         3.821915         0.589947        -1.760730
 H         3.789937        -1.264714        -2.075633
 H         1.761686        -1.185367         1.830836
