19
Iteration:   548charge 0 multiplicity 1
 C        -0.030772        -0.041620        -0.272603
 C         1.522551        -0.074206         0.108778
 C         2.233149         1.304500         0.498182
 C         3.382561         0.444716         1.114927
 C         3.980247        -0.530254        -0.087646
 C         3.440107        -0.291907        -1.405470
 O         2.020197        -0.492176        -1.254221
 O         3.396396        -1.684625         0.627760
 C         2.399733        -0.691310         1.258733
 H        -0.680393        -0.019054         0.675688
 H        -0.336157         0.876495        -0.857318
 H        -0.241927        -0.968616        -0.866971
 H         2.247972         2.070626        -0.266831
 H         1.581077         1.809520         1.379442
 H         4.061532         0.706552         1.979371
 H         5.123772        -0.701850        -0.083495
 H         3.857211         0.671271        -1.716159
 H         4.025777        -0.981125        -2.206427
 H         2.027999        -0.999896         2.217055
