19
Iteration:  3519charge 0 multiplicity 1
 C        -0.058430         0.004933        -0.069033
 C         1.502963        -0.112392         0.001716
 C         2.196830         1.282777         0.472329
 C         3.351289         0.454286         1.061734
 C         4.023871        -0.522523        -0.006882
 C         3.494546        -0.332591        -1.369952
 O         2.042842        -0.446130        -1.327007
 O         3.383023        -1.679140         0.696389
 C         2.437901        -0.714270         1.102162
 H        -0.517812        -0.060639         0.888677
 H        -0.251534         0.986652        -0.549513
 H        -0.511730        -0.842462        -0.676514
 H         2.465013         1.933622        -0.387708
 H         1.634391         1.782852         1.306161
 H         3.978761         0.739643         1.913328
 H         5.090812        -0.806337        -0.017740
 H         3.714756         0.688496        -1.747742
 H         3.823784        -1.052029        -2.104342
 H         1.838307        -1.012461         1.967724
