19
Iteration:   991charge 0 multiplicity 1
 C         0.012906        -0.035956        -0.040566
 C         1.533747        -0.025602        -0.079678
 C         2.252618         1.284309         0.288508
 C         3.321911         0.488932         1.098844
 C         4.064839        -0.474196         0.080888
 C         3.492251        -0.282104        -1.269904
 O         2.038973        -0.555329        -1.245472
 O         3.288230        -1.653036         0.587107
 C         2.383361        -0.778952         1.145682
 H        -0.381631         0.022838         1.096450
 H        -0.474525         0.788300        -0.585117
 H        -0.389397        -1.006160        -0.426575
 H         2.621783         1.953676        -0.554545
 H         1.545704         1.921731         0.764593
 H         4.019212         0.852679         1.935732
 H         5.127042        -0.579922         0.209226
 H         3.696696         0.675098        -1.701211
 H         3.870802        -0.941419        -2.052009
 H         1.852666        -1.395269         1.968520
