19
Iteration:  3633
 C        -0.007990         0.028342        -0.156422
 C         1.523677        -0.008537        -0.043438
 C         2.229744         1.275136         0.447329
 C         3.288964         0.469149         1.143875
 C         3.995510        -0.409617         0.027516
 C         3.393768        -0.386732        -1.392013
 O         2.040653        -0.532425        -1.285766
 O         3.395580        -1.702203         0.598210
 C         2.475151        -0.794933         1.215125
 H        -0.387828         0.351256         0.869158
 H        -0.346513         0.808047        -0.888800
 H        -0.597675        -0.874339        -0.284090
 H         2.677885         1.912552        -0.334311
 H         1.743737         1.792936         1.319806
 H         4.033035         0.915985         1.815038
 H         5.091731        -0.413652        -0.019862
 H         3.687293         0.684077        -1.825001
 H         3.917974        -1.332751        -1.850475
 H         1.878066        -1.092515         2.100093
