19
Iteration:  1311
 C         0.023225        -0.034125        -0.116136
 C         1.524827        -0.041055        -0.087232
 C         2.217670         1.297366         0.471151
 C         3.324012         0.481683         1.027851
 C         4.036259        -0.527342         0.114790
 C         3.408679        -0.452329        -1.340839
 O         1.987491        -0.350354        -1.316100
 O         3.451051        -1.669144         0.702559
 C         2.380548        -0.780915         1.103480
 H        -0.338304         0.253616         0.842993
 H        -0.360615         0.640205        -0.748590
 H        -0.369860        -0.955513        -0.442115
 H         2.501959         1.951890        -0.394252
 H         1.737261         1.868836         1.266868
 H         3.893869         0.933339         1.826657
 H         5.070328        -0.427994         0.095304
 H         3.953778         0.330597        -2.045358
 H         3.558425        -1.392409        -1.858123
 H         1.818842        -1.130761         2.004404
