19
Iteration:  3452
 C         0.034488        -0.094136        -0.024677
 C         1.526895         0.043902        -0.009624
 C         2.232848         1.309668         0.390448
 C         3.293011         0.470726         1.066464
 C         4.035313        -0.567970         0.056613
 C         3.511007        -0.325815        -1.332607
 O         2.029621        -0.398624        -1.290093
 O         3.287740        -1.697464         0.580602
 C         2.408700        -0.776505         1.105099
 H        -0.331421        -0.041158         0.989849
 H        -0.472610         0.640369        -0.610069
 H        -0.201039        -1.240201        -0.384655
 H         2.528844         2.004186        -0.476392
 H         1.697537         1.910011         1.176659
 H         3.914386         0.916426         1.883113
 H         5.208582        -0.516847         0.120186
 H         3.895070         0.623553        -1.686052
 H         3.738097        -1.245430        -1.909339
 H         1.897957        -1.152623         2.030328
