19
Iteration:  1619charge 0 multiplicity 1
 C         0.039461        -0.131375         0.011838
 C         1.592710        -0.039868        -0.075152
 C         2.255151         1.346689         0.352595
 C         3.323230         0.533279         1.074812
 C         4.010758        -0.499485         0.107222
 C         3.505067        -0.307381        -1.350171
 O         2.048493        -0.425962        -1.390967
 O         3.298888        -1.766081         0.638744
 C         2.284602        -0.755790         1.162722
 H        -0.147375         0.621096         0.823715
 H        -0.575689         0.252674        -0.864584
 H        -0.134794        -1.182014         0.187782
 H         2.613254         2.044672        -0.309115
 H         1.766710         1.874551         1.181315
 H         3.728604         0.949289         2.004223
 H         5.044079        -0.748738         0.127719
 H         4.048811         0.690685        -1.803315
 H         3.822144        -1.121433        -1.966690
 H         1.605900        -0.986513         2.047780
