19
Iteration:   617charge 0 multiplicity 1
 C        -0.018476        -0.181778         0.098475
 C         1.513666         0.032785        -0.108182
 C         2.264482         1.302526         0.317449
 C         3.329932         0.436973         1.126645
 C         4.044093        -0.540081         0.105024
 C         3.580854        -0.314870        -1.364956
 O         2.062699        -0.312636        -1.405310
 O         3.338569        -1.698802         0.627250
 C         2.260992        -0.763247         1.134647
 H        -0.312029         0.299452         1.009268
 H        -0.790110         0.240469        -0.581727
 H        -0.160762        -1.283405         0.112735
 H         2.536349         2.079398        -0.517298
 H         1.576166         1.724602         1.127652
 H         3.837827         0.815199         2.075304
 H         5.156651        -0.559907         0.141081
 H         4.013689         0.602356        -1.850444
 H         3.821976        -1.183685        -2.041413
 H         1.658781        -1.136475         2.063049
