19
Iteration:  2850
 C        -0.065227        -0.187039        -0.032378
 C         1.486933        -0.004858        -0.065585
 C         2.254701         1.393562         0.453845
 C         3.352355         0.401526         1.089921
 C         4.060163        -0.526135         0.031756
 C         3.559353        -0.331457        -1.380141
 O         2.052654        -0.325247        -1.289742
 O         3.269923        -1.751114         0.626687
 C         2.348345        -0.718228         1.113518
 H        -0.295577         0.198556         1.068448
 H        -0.466028         0.162300        -0.937970
 H        -0.279153        -1.339178        -0.225386
 H         2.604449         2.144100        -0.324698
 H         1.849059         2.115588         1.184632
 H         4.072609         0.694872         1.876751
 H         5.130512        -0.666542         0.137410
 H         3.914066         0.636182        -1.827133
 H         3.933030        -1.092093        -2.155699
 H         1.873492        -0.881372         2.086122
