19
Iteration:  4011
 C         0.076781        -0.212330         0.051413
 C         1.557191        -0.030373        -0.014927
 C         2.194273         1.305934         0.390318
 C         3.331294         0.418936         1.048131
 C         4.032683        -0.546220        -0.004392
 C         3.531614        -0.357318        -1.357488
 O         2.014741        -0.234680        -1.388147
 O         3.258041        -1.676187         0.643088
 C         2.359678        -0.720681         1.170422
 H        -0.415952         0.799037        -0.059983
 H        -0.191725        -0.860428        -0.854073
 H        -0.283345        -0.690964         0.896981
 H         2.569477         2.098071        -0.302309
 H         1.492144         1.692676         1.143805
 H         4.111948         0.800895         1.856144
 H         5.108534        -0.827755         0.153738
 H         4.012692         0.557736        -1.774739
 H         3.794641        -1.237262        -1.908764
 H         1.893053        -0.967687         2.168928
