19
Iteration:  1943
 C         0.042544        -0.194695        -0.049608
 C         1.544669         0.046426        -0.084347
 C         2.210530         1.369428         0.472278
 C         3.383948         0.497186         1.035378
 C         3.972636        -0.556362         0.056778
 C         3.526551        -0.349475        -1.382189
 O         2.065868        -0.372684        -1.279716
 O         3.224182        -1.737634         0.614915
 C         2.389941        -0.695015         1.170533
 H        -0.411194         0.203576         1.006164
 H        -0.491772         0.263267        -0.871129
 H        -0.120643        -1.295818        -0.124112
 H         2.373709         2.175232        -0.301778
 H         1.690204         1.728727         1.317275
 H         4.073340         0.837383         1.792673
 H         5.127573        -0.629893        -0.039320
 H         3.980513         0.427846        -2.000706
 H         3.929017        -1.251018        -1.971769
 H         1.817857        -1.021780         2.008920
