19
Iteration:  3755charge 0 multiplicity 1
 C         0.038495        -0.114765        -0.036830
 C         1.520696        -0.029985        -0.010148
 C         2.219600         1.285387         0.391993
 C         3.373141         0.400574         1.044748
 C         4.045286        -0.473379         0.052148
 C         3.428331        -0.386826        -1.408219
 O         2.046473        -0.347236        -1.317103
 O         3.319803        -1.670744         0.656017
 C         2.396348        -0.689787         1.174097
 H        -0.328897         0.609569         0.653550
 H        -0.354201         0.136135        -0.973990
 H        -0.459624        -1.183879         0.239471
 H         2.528297         1.992089        -0.425148
 H         1.660003         1.872845         1.157143
 H         3.875562         0.798455         1.908049
 H         5.091027        -0.685855         0.168914
 H         3.870920         0.406118        -1.979222
 H         3.675022        -1.374981        -1.790024
 H         1.783511        -1.093988         1.929973
