19
Iteration:  3447
 C         0.058989        -0.147677        -0.007063
 C         1.565956         0.052111        -0.009227
 C         2.239449         1.310018         0.396077
 C         3.310832         0.451430         1.013877
 C         3.993271        -0.520812         0.031599
 C         3.513183        -0.320259        -1.292854
 O         2.050225        -0.385135        -1.313786
 O         3.256145        -1.696253         0.627009
 C         2.368579        -0.766490         1.095525
 H        -0.313083        -0.002931         1.063843
 H        -0.417935         0.645089        -0.669729
 H        -0.155711        -1.141661        -0.213994
 H         2.483761         1.917676        -0.428105
 H         1.696504         1.796104         1.185792
 H         3.959360         0.786941         1.803617
 H         5.048073        -0.544411         0.051521
 H         4.068070         0.625398        -1.668380
 H         3.667410        -1.143188        -2.020059
 H         1.918131        -1.255606         1.951957
