19
Iteration:  1492
 C         0.066109        -0.184809         0.002608
 C         1.575369         0.003719        -0.004090
 C         2.305806         1.331129         0.382581
 C         3.307773         0.428829         1.112506
 C         4.025140        -0.474365         0.014421
 C         3.544272        -0.355879        -1.400863
 O         2.052991        -0.418095        -1.329531
 O         3.201399        -1.708685         0.651345
 C         2.263148        -0.632174         1.136592
 H        -0.176267         0.039254         0.969479
 H        -0.503572         0.355834        -0.774985
 H        -0.038513        -1.266556        -0.038454
 H         2.607963         1.858059        -0.587032
 H         1.671280         1.986884         1.064949
 H         4.091942         0.528954         1.936378
 H         5.172257        -0.518076         0.149962
 H         3.781592         0.734959        -1.872532
 H         4.048538        -1.105177        -2.143854
 H         1.679274        -0.902885         2.027661
