19
Iteration:  4366charge 0 multiplicity 1
 C        -0.017598         0.016505        -0.126885
 C         1.417513         0.031668         0.055569
 C         2.173329         1.227498         0.474527
 C         3.396216         0.407841         0.988768
 C         4.106884        -0.527473         0.020801
 C         3.409403        -0.215995        -1.287755
 O         2.033181        -0.457107        -1.273702
 O         3.413405        -1.765449         0.555548
 C         2.426820        -0.789531         1.159530
 H        -0.319627         0.358565        -1.102433
 H        -0.478451        -1.011577         0.047895
 H        -0.594069         0.524809         0.690526
 H         2.529732         2.039739        -0.270920
 H         1.605085         1.876896         1.266887
 H         3.823453         0.881690         1.921077
 H         5.204102        -0.560828        -0.173978
 H         3.698374         0.769571        -1.615012
 H         3.780786        -1.006876        -2.086933
 H         2.120247        -1.046333         2.202704
