19
Iteration:   659charge 0 multiplicity 1
 C         0.029976        -0.132279        -0.228844
 C         1.520138         0.046220         0.053610
 C         2.212002         1.296243         0.483329
 C         3.370413         0.432720         1.067061
 C         3.988564        -0.526600         0.039305
 C         3.434730        -0.304192        -1.442494
 O         2.066402        -0.454089        -1.262241
 O         3.313559        -1.637585         0.609387
 C         2.429535        -0.693213         1.293172
 H        -0.658795         0.081651         0.621188
 H        -0.276721         0.500133        -1.133962
 H        -0.017551        -1.242019        -0.519636
 H         2.441345         2.072905        -0.258171
 H         1.593228         1.590325         1.400055
 H         4.183002         0.876853         1.745017
 H         5.091446        -0.846497         0.026092
 H         3.650348         0.590430        -1.940021
 H         3.676296        -1.371697        -2.024609
 H         1.877193        -1.127238         2.158710
