19
Iteration:  1499
 C         0.010566        -0.200138         0.022043
 C         1.557919         0.013510        -0.013714
 C         2.288794         1.367551         0.352822
 C         3.346415         0.420597         1.095155
 C         4.065993        -0.474021         0.064189
 C         3.554605        -0.405296        -1.427361
 O         2.054739        -0.370810        -1.323099
 O         3.203407        -1.671908         0.642698
 C         2.322117        -0.705213         1.133277
 H        -0.335200         0.047745         1.070068
 H        -0.570956         0.430227        -0.686095
 H        -0.145820        -1.251101        -0.237650
 H         2.610249         2.020519        -0.417089
 H         1.579400         1.891784         1.076967
 H         3.915541         0.770681         1.953197
 H         5.132343        -0.587945         0.210480
 H         3.859681         0.458491        -1.856473
 H         3.965616        -1.224079        -2.060124
 H         1.563467        -0.994236         1.920133
