19
Iteration:  3237
 C        -0.001182        -0.163506        -0.091656
 C         1.528306         0.021322        -0.011841
 C         2.232218         1.333465         0.452724
 C         3.318972         0.469435         1.011468
 C         4.043304        -0.579944         0.019687
 C         3.491193        -0.410482        -1.382620
 O         2.029794        -0.320229        -1.262301
 O         3.374375        -1.642458         0.649244
 C         2.357294        -0.777911         1.180284
 H        -0.602925         0.364557         0.662913
 H        -0.304518         0.456823        -1.052145
 H        -0.449468        -1.141198        -0.108550
 H         2.524168         1.999730        -0.343586
 H         1.795896         1.882190         1.262074
 H         3.914334         0.850762         1.892705
 H         5.092956        -0.655590         0.000285
 H         3.785493         0.564361        -1.686650
 H         3.851119        -1.211387        -2.071189
 H         1.750237        -1.333659         1.924888
