19
Iteration:  4975charge 0 multiplicity 1
 C        -0.001915         0.045859        -0.059826
 C         1.527469        -0.066602         0.034192
 C         2.154936         1.275623         0.451545
 C         3.334473         0.501056         1.031194
 C         3.987041        -0.490736         0.041148
 C         3.422848        -0.301499        -1.324937
 O         2.035991        -0.420265        -1.347489
 O         3.458301        -1.736404         0.605334
 C         2.429136        -0.855021         1.160731
 H         0.053190         0.850044        -0.679052
 H        -0.598218        -0.795001        -0.488981
 H        -0.417916         0.313837         0.967759
 H         2.468632         1.771845        -0.526072
 H         1.549175         1.931193         1.124278
 H         3.778572         0.838546         2.014928
 H         5.070376        -0.701212         0.047962
 H         3.796065         0.666661        -1.700658
 H         3.741527        -1.148861        -2.036795
 H         1.868996        -1.448772         1.947681
