19
Iteration:  4524charge 0 multiplicity 1
 C         0.075262         0.069664         0.018527
 C         1.517897        -0.098872         0.003098
 C         2.182803         1.230923         0.441115
 C         3.306272         0.404241         1.103607
 C         4.072663        -0.475219         0.020516
 C         3.479111        -0.274218        -1.346137
 O         1.995882        -0.430061        -1.314885
 O         3.413608        -1.669550         0.529154
 C         2.345022        -0.855410         1.178876
 H        -0.245547         0.224712        -1.104182
 H        -0.373992        -0.830827         0.375367
 H        -0.344313         0.937472         0.567623
 H         2.227223         1.693961        -0.536450
 H         1.472144         1.837240         0.986936
 H         3.924395         0.776945         1.841234
 H         5.169079        -0.509171        -0.010101
 H         3.679489         0.712387        -1.705877
 H         3.877296        -0.952872        -2.118518
 H         1.780701        -1.235445         2.047227
