19
Iteration:  1933
 C         0.094621        -0.158372        -0.142640
 C         1.545267         0.068095         0.035199
 C         2.223026         1.355306         0.459668
 C         3.374954         0.505667         1.028322
 C         3.998726        -0.504094         0.054222
 C         3.486995        -0.380405        -1.420708
 O         2.025323        -0.404289        -1.358246
 O         3.263227        -1.760607         0.626071
 C         2.393271        -0.726928         1.240476
 H        -0.412473         0.104210         0.964248
 H        -0.374931         0.433879        -0.900308
 H        -0.131068        -1.237929        -0.307568
 H         2.298799         2.292313        -0.152511
 H         1.746067         1.691157         1.307754
 H         3.959459         0.860584         1.872311
 H         5.064137        -0.602369         0.483540
 H         3.744732         0.583943        -1.949986
 H         3.539757        -1.317624        -2.043100
 H         2.009326        -1.002130         2.185680
