19
Iteration:  1260
 C         0.004954        -0.099290        -0.076424
 C         1.491901         0.070483        -0.014265
 C         2.269216         1.367901         0.431871
 C         3.385928         0.432693         1.024320
 C         4.070559        -0.497866         0.048686
 C         3.485849        -0.381402        -1.301172
 O         2.030983        -0.475449        -1.289525
 O         3.321241        -1.676775         0.632697
 C         2.331789        -0.721275         1.097233
 H        -0.583351         0.456499         0.644664
 H        -0.460868         0.130069        -1.187455
 H        -0.215117        -1.213335         0.001475
 H         2.320344         2.230017        -0.168234
 H         1.718631         1.530610         1.409941
 H         3.996998         0.795996         1.801291
 H         5.207594        -0.573387         0.015901
 H         3.874326         0.485725        -1.719375
 H         3.772764        -1.264027        -1.931739
 H         1.715295        -1.115963         1.925313
