19
Iteration:  3828charge 0 multiplicity 1
 C         0.022748        -0.113962        -0.088785
 C         1.556027         0.016270         0.045916
 C         2.242958         1.429844         0.445630
 C         3.371696         0.476625         1.113002
 C         4.039732        -0.532801         0.005835
 C         3.413066        -0.345846        -1.369781
 O         2.075136        -0.446187        -1.270699
 O         3.307122        -1.746673         0.578743
 C         2.380569        -0.765406         1.142174
 H        -0.478286         0.873811        -0.190976
 H        -0.220738        -0.705457        -1.001667
 H        -0.446467        -0.640487         0.653357
 H         2.278844         2.118781        -0.403448
 H         1.655234         2.013418         1.196701
 H         3.863215         0.935681         1.951716
 H         5.108563        -0.773029        -0.015721
 H         3.661732         0.671245        -1.896047
 H         3.627043        -1.241897        -2.074763
 H         1.980427        -1.067124         2.132398
