19
Iteration:  4312
 C         0.021213        -0.275997         0.028840
 C         1.519112         0.102075        -0.044665
 C         2.254195         1.368614         0.412031
 C         3.396600         0.441587         1.072252
 C         4.022678        -0.541327         0.110857
 C         3.475010        -0.373570        -1.343799
 O         2.028704        -0.187078        -1.332349
 O         3.281491        -1.745276         0.543571
 C         2.394045        -0.794252         1.121569
 H        -0.462766        -0.017636        -0.896611
 H        -0.060642        -1.353203         0.383618
 H        -0.582533         0.274191         0.773606
 H         2.601338         2.083681        -0.333244
 H         1.505401         1.845774         1.105186
 H         3.959632         0.789622         1.987583
 H         5.136711        -0.515401         0.179060
 H         3.984460         0.320578        -1.994432
 H         3.588932        -1.301285        -2.056600
 H         1.834926        -1.245293         1.988440
