19
Iteration:  3428charge 0 multiplicity 1
 C         0.083944        -0.231806         0.029311
 C         1.581591        -0.013206        -0.073655
 C         2.250270         1.359742         0.436386
 C         3.326344         0.455109         1.092288
 C         4.001494        -0.660412         0.033961
 C         3.514250        -0.274345        -1.459187
 O         2.054790        -0.296769        -1.393842
 O         3.249929        -1.718625         0.692899
 C         2.316590        -0.683564         1.140304
 H        -0.264047         0.260970         1.004472
 H        -0.491288         0.205991        -0.798206
 H        -0.135533        -1.461341         0.199509
 H         2.519281         2.186394        -0.303436
 H         1.713594         1.824283         1.297973
 H         3.960006         0.836230         1.910222
 H         5.181484        -0.745506         0.134926
 H         3.745524         0.753234        -1.729076
 H         3.830438        -1.153433        -2.114645
 H         1.632660        -0.798291         2.019514
