19
Iteration:  4440
 C        -0.006974        -0.167544         0.095193
 C         1.533758         0.042287        -0.009997
 C         2.202707         1.329520         0.440301
 C         3.297227         0.443191         1.040344
 C         4.027463        -0.577211         0.026240
 C         3.538052        -0.386450        -1.432206
 O         2.100882        -0.247689        -1.352530
 O         3.323725        -1.695343         0.643380
 C         2.372659        -0.770969         1.103254
 H        -0.550652         0.711098        -0.119365
 H        -0.370387        -0.840082        -0.642587
 H        -0.368013        -0.719414         1.039325
 H         2.296375         1.820316        -0.524316
 H         1.788599         1.916410         1.247950
 H         3.951759         0.829239         1.814592
 H         5.081500        -0.734023         0.184059
 H         3.882344         0.571037        -1.959851
 H         3.667611        -1.283380        -1.961437
 H         1.715851        -1.050198         1.913826
