19
Iteration:  4456charge 0 multiplicity 1
 C         0.052293        -0.226541        -0.007705
 C         1.585421        -0.043695        -0.001061
 C         2.194649         1.307072         0.379343
 C         3.370839         0.451754         0.999227
 C         4.005714        -0.579593        -0.009530
 C         3.465420        -0.363861        -1.320584
 O         2.018374        -0.164657        -1.344575
 O         3.269266        -1.746211         0.630792
 C         2.371545        -0.700200         1.220639
 H        -0.431320         0.842638        -0.190182
 H        -0.265541        -1.071286        -0.744210
 H        -0.149779        -0.528555         0.976315
 H         2.568036         2.105910        -0.365558
 H         1.476624         1.887655         1.137455
 H         4.046686         0.711125         1.882637
 H         5.138211        -0.609220        -0.054158
 H         4.042336         0.434171        -1.699769
 H         3.809566        -1.219356        -2.102002
 H         2.069228        -1.033672         2.258571
