19
Iteration:   654
 C         0.042849        -0.157555        -0.205956
 C         1.544748         0.032665         0.036403
 C         2.237228         1.339676         0.465401
 C         3.384666         0.478480         1.069023
 C         3.990391        -0.520160         0.027702
 C         3.453849        -0.338484        -1.453731
 O         2.048454        -0.428959        -1.248030
 O         3.317390        -1.697988         0.610024
 C         2.354982        -0.711702         1.285524
 H        -0.591230         0.052589         0.668305
 H        -0.165215         0.395136        -1.093157
 H        -0.076991        -1.189969        -0.441588
 H         2.310396         2.201168        -0.225416
 H         1.670491         1.598421         1.331940
 H         4.094395         0.876329         1.751383
 H         5.058386        -0.694870         0.103980
 H         3.680232         0.733910        -1.931197
 H         3.666116        -1.201340        -1.991028
 H         1.858998        -1.134560         2.151586
