19
Iteration:  3430charge 0 multiplicity 1
 C         0.094924        -0.219435         0.042149
 C         1.573845        -0.030368        -0.070396
 C         2.252059         1.358517         0.429787
 C         3.338566         0.447914         1.069907
 C         3.987448        -0.633538         0.030925
 C         3.503731        -0.280844        -1.455513
 O         2.073582        -0.294334        -1.382333
 O         3.256768        -1.717670         0.689453
 C         2.288949        -0.696878         1.145966
 H        -0.238092         0.227710         0.960162
 H        -0.444507         0.204847        -0.752252
 H        -0.147451        -1.428471         0.124704
 H         2.492443         2.216230        -0.319843
 H         1.701976         1.841204         1.293309
 H         4.016035         0.800062         1.899877
 H         5.174423        -0.745804         0.133720
 H         3.690380         0.718147        -1.700366
 H         3.894099        -1.126383        -2.061771
 H         1.562547        -0.779527         1.994175
