19
Iteration:  3367charge 0 multiplicity 1
 C        -0.042592        -0.005458        -0.121856
 C         1.568977         0.001485         0.042887
 C         2.162684         1.312485         0.467264
 C         3.367274         0.430830         1.129697
 C         4.021983        -0.546483         0.031494
 C         3.423393        -0.378152        -1.333925
 O         2.036336        -0.470210        -1.323669
 O         3.383242        -1.671516         0.572671
 C         2.432670        -0.734958         1.186620
 H        -0.548666         0.596835         0.621271
 H        -0.406431         0.270924        -1.192823
 H        -0.370654        -1.036888        -0.165343
 H         2.294156         2.070013        -0.348492
 H         1.580838         1.854297         1.227204
 H         4.182687         0.906738         1.771527
 H         5.098774        -0.465454        -0.045069
 H         3.924569         0.608654        -1.832949
 H         3.816945        -1.110103        -2.041347
 H         1.966074        -1.309183         2.005549
