19
Iteration:  3209
 C         0.030990        -0.030701        -0.007313
 C         1.580504        -0.037225        -0.081436
 C         2.244655         1.258346         0.422875
 C         3.304974         0.481684         1.114987
 C         4.055035        -0.472774         0.103080
 C         3.449295        -0.299976        -1.309113
 O         2.036692        -0.504786        -1.292937
 O         3.340733        -1.644277         0.541800
 C         2.351912        -0.782141         1.085650
 H        -0.428972         0.744422         0.659922
 H        -0.345738         0.205373        -0.924833
 H        -0.471396        -0.971514         0.331530
 H         2.624794         1.902583        -0.411826
 H         1.523674         1.865128         1.046566
 H         3.766347         0.736838         2.021384
 H         5.213501        -0.572298         0.085575
 H         3.699552         0.606486        -1.924247
 H         3.912763        -1.168679        -1.804698
 H         1.724122        -1.292468         1.797590
