19
Iteration:  3501charge 0 multiplicity 1
 C         0.084324         0.070085        -0.148919
 C         1.581574        -0.014891        -0.047911
 C         2.147139         1.296935         0.441399
 C         3.310418         0.480897         1.077880
 C         4.051554        -0.516312         0.037674
 C         3.371518        -0.332776        -1.415289
 O         1.966677        -0.526269        -1.302744
 O         3.464137        -1.727024         0.657637
 C         2.409368        -0.812036         1.237624
 H        -0.389138        -0.094228         0.874992
 H        -0.238144         1.136823        -0.423796
 H        -0.301969        -0.464618        -0.913165
 H         2.280173         2.152506        -0.197923
 H         1.449996         1.656390         1.203932
 H         3.930374         0.868062         1.881495
 H         5.133827        -0.473350         0.020793
 H         3.608690         0.712947        -1.601971
 H         3.660837        -1.183111        -2.043416
 H         1.969014        -1.252758         2.135972
