19
Iteration:  1011
 C        -0.034637        -0.039927        -0.115917
 C         1.497315        -0.022234         0.026837
 C         2.220354         1.328979         0.473721
 C         3.322388         0.434154         1.017142
 C         4.036806        -0.480699         0.044220
 C         3.466084        -0.352293        -1.406029
 O         2.108019        -0.588655        -1.290610
 O         3.397542        -1.657766         0.620610
 C         2.330358        -0.690824         1.193050
 H        -0.644697         0.083765         0.810737
 H        -0.366108         0.908643        -0.642533
 H        -0.395671        -0.865457        -0.752975
 H         2.507022         2.146930        -0.243521
 H         1.813024         1.866514         1.424537
 H         3.817172         0.798880         1.906322
 H         5.182377        -0.586811         0.112683
 H         3.676485         0.540160        -1.934321
 H         3.912928        -1.147879        -2.053010
 H         1.811534        -0.857749         2.101603
