19
Iteration:  1225
 C         0.023162        -0.217374         0.004511
 C         1.559179         0.044398         0.030585
 C         2.330073         1.369630         0.281334
 C         3.321766         0.471497         1.068196
 C         3.945080        -0.577051         0.020819
 C         3.546698        -0.234911        -1.376166
 O         2.100904        -0.432308        -1.327803
 O         3.195177        -1.685545         0.642037
 C         2.323522        -0.759941         1.255291
 H        -0.487155        -0.084830         0.943899
 H        -0.462607         0.422549        -0.840491
 H        -0.040449        -1.328648        -0.245811
 H         2.610337         1.985698        -0.583721
 H         1.819322         2.083794         0.986407
 H         4.031230         0.918809         1.689700
 H         5.011672        -0.626943         0.069072
 H         3.973583         0.683022        -1.616486
 H         3.883026        -0.941055        -2.131987
 H         1.788200        -1.302121         2.094931
