19
Iteration:   559
 C        -0.064834        -0.080320        -0.195906
 C         1.485919        -0.007793         0.018215
 C         2.254612         1.328981         0.538889
 C         3.390735         0.422270         1.026161
 C         3.989187        -0.481984         0.058919
 C         3.433123        -0.253378        -1.371929
 O         2.078147        -0.537340        -1.300225
 O         3.361602        -1.673477         0.625170
 C         2.422783        -0.757006         1.198263
 H        -0.677939         0.008361         0.760090
 H        -0.203661         0.821570        -0.858141
 H        -0.434827        -0.980115        -0.757891
 H         2.583727         2.029068        -0.225898
 H         1.674287         1.869982         1.417270
 H         4.134576         0.708161         1.830581
 H         5.128069        -0.515228        -0.065082
 H         3.649838         0.678008        -1.811761
 H         3.726521        -1.205788        -2.068396
 H         1.909957        -1.016082         2.117234
