19
Iteration:  1287charge 0 multiplicity 1
 C         0.028927        -0.009611        -0.079020
 C         1.510241        -0.065764         0.003453
 C         2.117308         1.320001         0.457435
 C         3.249724         0.432583         1.132981
 C         4.070569        -0.488140        -0.020528
 C         3.452814        -0.505570        -1.402785
 O         2.051729        -0.311125        -1.372409
 O         3.444453        -1.701355         0.687478
 C         2.415841        -0.767382         1.221505
 H        -0.381045         0.792801         0.629949
 H        -0.182619         0.418705        -1.004502
 H        -0.557256        -0.916770        -0.147194
 H         2.387131         2.003875        -0.443342
 H         1.500136         1.810665         1.148681
 H         3.994938         0.905797         1.885198
 H         5.166195        -0.353777        -0.056341
 H         4.098134         0.227768        -2.094259
 H         3.578021        -1.448778        -1.914963
 H         1.778824        -1.156154         2.009800
