19
Iteration:  3491
 C         0.069337         0.117669        -0.142841
 C         1.508859         0.001478        -0.039040
 C         2.219004         1.261218         0.475557
 C         3.274836         0.435820         1.027241
 C         3.991683        -0.418907         0.037055
 C         3.394824        -0.372613        -1.335825
 O         1.987083        -0.543533        -1.261288
 O         3.458743        -1.666425         0.645073
 C         2.442415        -0.839180         1.172788
 H        -0.488871        -0.348699         0.728646
 H        -0.297648         1.138673        -0.467478
 H        -0.102913        -0.667688        -0.800941
 H         2.578230         1.960873        -0.238476
 H         1.669666         1.643778         1.323596
 H         3.876579         0.882244         1.812473
 H         5.016873        -0.681930         0.032431
 H         3.542955         0.563027        -1.955852
 H         3.823977        -1.026598        -2.138314
 H         1.901183        -1.254713         2.033535
