19
Iteration:  1696
 C        -0.022651        -0.086055        -0.145456
 C         1.547035         0.065479         0.020426
 C         2.188059         1.392125         0.421261
 C         3.322140         0.439841         1.065206
 C         4.083525        -0.568035         0.058337
 C         3.486932        -0.371291        -1.454273
 O         2.061738        -0.515549        -1.267196
 O         3.357884        -1.734996         0.663803
 C         2.353323        -0.663043         1.160530
 H        -0.343973        -0.145040         0.900328
 H        -0.429100         0.880460        -0.666147
 H        -0.409333        -1.030025        -0.566118
 H         2.330468         2.133314        -0.361560
 H         1.627034         1.965523         1.203979
 H         4.007429         0.843155         1.837914
 H         5.121513        -0.575655         0.308688
 H         3.748860         0.578723        -1.808052
 H         3.817379        -1.151406        -2.017051
 H         1.781641        -0.926298         2.115207
