19
Iteration:   886charge 0 multiplicity 1
 C        -0.052944        -0.172096        -0.103203
 C         1.515794         0.003544        -0.047211
 C         2.256006         1.367348         0.444594
 C         3.400037         0.477168         1.061928
 C         4.070042        -0.509709         0.055716
 C         3.448047        -0.370072        -1.315187
 O         2.047719        -0.464421        -1.328406
 O         3.304997        -1.693317         0.688018
 C         2.413072        -0.671714         1.111872
 H        -0.662271         0.047455         0.843177
 H        -0.424417         0.497468        -0.948413
 H        -0.388825        -1.211829        -0.404856
 H         2.450198         2.013344        -0.498785
 H         1.637679         2.029117         1.226790
 H         4.106389         0.843913         1.894650
 H         5.230946        -0.639425         0.098092
 H         3.671183         0.604027        -1.746414
 H         3.788042        -1.147416        -1.969540
 H         1.812434        -0.929529         2.056872
