19
Iteration:  3972
 C        -0.051820        -0.101636        -0.026822
 C         1.527401         0.075486        -0.057160
 C         2.260996         1.358727         0.498896
 C         3.274705         0.419173         1.158696
 C         4.098618        -0.549259         0.014210
 C         3.537280        -0.384915        -1.368937
 O         1.952761        -0.427568        -1.345618
 O         3.389178        -1.639710         0.586451
 C         2.413303        -0.788956         1.141992
 H        -0.403996         0.648222        -0.709446
 H        -0.298835        -1.038586        -0.464021
 H        -0.622174         0.027608         0.978919
 H         2.428202         2.121357        -0.233087
 H         1.646425         1.861693         1.282413
 H         3.867909         0.668791         1.939288
 H         5.137585        -0.587523        -0.166769
 H         3.923328         0.554203        -1.903070
 H         3.713576        -1.276415        -2.082354
 H         1.876119        -1.165988         1.979527
