19
Iteration:  2628charge 0 multiplicity 1
 C         0.023287        -0.026183        -0.139084
 C         1.476160        -0.044396         0.048544
 C         2.201718         1.312984         0.482046
 C         3.339330         0.550768         1.057225
 C         4.046236        -0.516924         0.044457
 C         3.467805        -0.413739        -1.354221
 O         2.031147        -0.398050        -1.307631
 O         3.326604        -1.717640         0.552502
 C         2.407914        -0.778412         1.176710
 H        -0.473851         0.382533         0.784028
 H        -0.234060         0.665570        -0.945700
 H        -0.302264        -1.084840        -0.208233
 H         2.486264         1.982765        -0.304178
 H         1.774681         1.746920         1.406446
 H         4.068454         0.889549         1.838899
 H         5.092985        -0.689689         0.076348
 H         3.938419         0.534490        -1.757826
 H         3.892878        -1.267870        -1.843883
 H         1.941823        -1.238695         2.049981
