19
Iteration:  4041
 C        -0.000890        -0.174118        -0.089150
 C         1.499702         0.047421        -0.020287
 C         2.267382         1.394727         0.457458
 C         3.356185         0.380732         0.981733
 C         4.075024        -0.535347        -0.040092
 C         3.460295        -0.264030        -1.325598
 O         2.011819        -0.438425        -1.246888
 O         3.329258        -1.733371         0.683031
 C         2.352398        -0.725264         1.106829
 H        -0.509496         0.767810        -0.245448
 H        -0.218583        -0.819970        -0.968175
 H        -0.340304        -0.647114         0.828945
 H         2.543318         2.367850        -0.139972
 H         1.669776         1.817498         1.344507
 H         4.027078         0.694678         1.825281
 H         5.177827        -0.748052        -0.007778
 H         3.781158         0.814885        -1.686167
 H         3.865218        -0.952644        -2.070491
 H         1.886236        -0.960527         2.095911
