19
Iteration:   302charge 0 multiplicity 1
 C         0.076918        -0.125772        -0.192476
 C         1.515273         0.019350         0.073786
 C         2.151063         1.364664         0.477111
 C         3.370883         0.402734         1.006656
 C         4.044228        -0.538394        -0.025039
 C         3.415009        -0.339158        -1.382159
 O         2.037559        -0.381672        -1.192553
 O         3.387201        -1.695254         0.637935
 C         2.359456        -0.744110         1.186216
 H        -0.682138         0.410924         0.356873
 H         0.042485         0.222381        -1.241579
 H        -0.256703        -1.233932         0.007069
 H         2.283619         2.214058        -0.267017
 H         1.718687         1.885570         1.250851
 H         4.169373         0.516284         1.867771
 H         5.122090        -0.490728         0.045139
 H         3.699137         0.555349        -2.047258
 H         3.656276        -1.309844        -2.126651
 H         1.721784        -0.930992         2.112505
