19
Iteration:   226
 C         0.076108        -0.169194         0.069109
 C         1.555335        -0.007377         0.008467
 C         2.282705         1.346734         0.324091
 C         3.353616         0.470321         1.093675
 C         3.951786        -0.475445         0.076749
 C         3.498050        -0.235047        -1.326811
 O         2.059390        -0.487558        -1.372445
 O         3.238414        -1.719905         0.577087
 C         2.368811        -0.739899         1.140767
 H        -0.313866        -0.205100         1.067847
 H        -0.493355         0.599329        -0.467086
 H        -0.173391        -1.074376        -0.675390
 H         2.592415         1.864123        -0.682697
 H         1.620471         1.982125         0.928563
 H         3.870092         0.684871         2.083684
 H         5.049280        -0.408291         0.100921
 H         3.687161         0.765673        -1.592291
 H         4.041174        -1.082195        -1.926413
 H         1.779763        -1.011712         2.058775
