19
Iteration:  3405charge 0 multiplicity 1
 C         0.029535        -0.228202        -0.023069
 C         1.500024         0.088805        -0.044875
 C         2.255345         1.388795         0.441357
 C         3.408621         0.463541         1.057718
 C         4.014675        -0.564147         0.032820
 C         3.462568        -0.400295        -1.307883
 O         2.048812        -0.283608        -1.333464
 O         3.291637        -1.706052         0.598658
 C         2.356642        -0.761058         1.138371
 H        -0.677958         0.353542         0.669883
 H        -0.354404        -0.163211        -1.073033
 H        -0.012061        -1.376154         0.268940
 H         2.515188         2.114075        -0.350772
 H         1.673612         1.936631         1.208990
 H         4.071133         0.712916         1.877713
 H         5.127291        -0.805007        -0.004443
 H         3.783436         0.578671        -1.607025
 H         3.857908        -1.236515        -1.937600
 H         1.701743        -1.042957         1.973731
