19
Iteration:  3287
 C         0.022606        -0.205868        -0.025909
 C         1.533086         0.043110        -0.003383
 C         2.212058         1.380414         0.445214
 C         3.371808         0.455662         1.058841
 C         4.014595        -0.583378         0.056756
 C         3.516976        -0.402044        -1.431501
 O         2.067864        -0.366603        -1.257469
 O         3.313981        -1.647908         0.625111
 C         2.291324        -0.669699         1.072113
 H        -0.386885        -0.559810         0.896046
 H        -0.610061         0.547313        -0.309415
 H        -0.208870        -1.054077        -0.784361
 H         2.539027         1.999856        -0.453670
 H         1.731328         2.013193         1.250646
 H         3.960730         0.763994         1.949631
 H         5.155473        -0.833332         0.003121
 H         3.917918         0.595612        -1.880353
 H         3.871291        -1.359991        -1.813498
 H         1.832875        -1.012775         1.999473
