19
Iteration:   842charge 0 multiplicity 1
 C         0.043718        -0.036737         0.066027
 C         1.530177        -0.112360        -0.031716
 C         2.227260         1.291669         0.283897
 C         3.234627         0.517599         1.140912
 C         4.019200        -0.393008         0.099322
 C         3.536754        -0.346489        -1.337359
 O         2.098645        -0.509996        -1.407146
 O         3.310479        -1.704779         0.606963
 C         2.345016        -0.758036         1.120717
 H        -0.043791         0.161786         1.230247
 H        -0.440389         0.913482        -0.316645
 H        -0.607376        -0.937434        -0.198218
 H         2.760469         1.861321        -0.599010
 H         1.566886         2.061155         0.935693
 H         3.638208         0.985590         2.126041
 H         5.186235        -0.594825        -0.055306
 H         3.900745         0.535515        -1.748451
 H         3.963687        -1.174636        -1.843316
 H         1.751399        -1.254277         1.968747
