19
Iteration:  3471
 C        -0.101426        -0.016874        -0.126647
 C         1.547635        -0.028385         0.018878
 C         2.254040         1.369788         0.439916
 C         3.364120         0.428338         1.127852
 C         4.093611        -0.424808         0.065981
 C         3.448498        -0.378564        -1.374941
 O         2.021653        -0.510367        -1.257255
 O         3.428642        -1.703648         0.538285
 C         2.314846        -0.717980         1.183171
 H        -0.630123        -0.152654         0.875739
 H        -0.207470         1.009421        -0.470377
 H        -0.572047        -0.866229        -0.798569
 H         2.614514         1.898205        -0.456380
 H         1.595628         1.896980         1.126347
 H         3.915333         0.584152         2.065502
 H         5.223678        -0.640180         0.014269
 H         3.744420         0.566439        -1.981664
 H         3.608538        -1.265428        -2.091813
 H         1.913921        -1.305854         2.018030
