19
Iteration:   999
 C        -0.062731        -0.022210        -0.081746
 C         1.506425        -0.022556        -0.048022
 C         2.295569         1.269758         0.349772
 C         3.343856         0.478022         1.107794
 C         4.009688        -0.449010         0.059283
 C         3.526768        -0.278478        -1.338803
 O         2.059575        -0.593921        -1.228355
 O         3.324012        -1.669509         0.590526
 C         2.356695        -0.735198         1.144424
 H        -0.303979        -0.088025         0.952367
 H        -0.472668         0.871859        -0.660013
 H        -0.462486        -0.983131        -0.456746
 H         2.497699         1.916582        -0.504898
 H         1.571129         1.869005         1.104797
 H         3.969288         0.835385         1.860221
 H         5.180585        -0.514252         0.060049
 H         3.762475         0.687223        -1.723855
 H         3.956508        -1.108568        -1.941045
 H         1.911975        -1.081857         2.008466
