19
Iteration:  3893charge 0 multiplicity 1
 C         0.104295        -0.149276         0.005248
 C         1.555036         0.061049        -0.005109
 C         2.282347         1.389381         0.481770
 C         3.291219         0.430090         1.116784
 C         4.032579        -0.521935         0.095763
 C         3.417517        -0.383734        -1.399456
 O         2.012229        -0.353480        -1.367512
 O         3.337764        -1.671329         0.562421
 C         2.307102        -0.810541         1.079875
 H        -0.372961        -0.008623        -1.037127
 H        -0.037645        -1.252260         0.327961
 H        -0.340527         0.512385         0.699150
 H         2.606487         2.099179        -0.254385
 H         1.707174         1.843441         1.277586
 H         3.954723         0.714327         1.965031
 H         5.136462        -0.668525         0.056962
 H         3.841472         0.606895        -1.866101
 H         3.768846        -1.331608        -1.948638
 H         1.715016        -1.214090         1.963097
