19
Iteration:   890charge 0 multiplicity 1
 C        -0.064003        -0.182299        -0.114311
 C         1.520415        -0.004577        -0.007683
 C         2.231612         1.367392         0.447336
 C         3.420886         0.470302         1.060448
 C         4.041656        -0.517285         0.082022
 C         3.482658        -0.378356        -1.351969
 O         2.012398        -0.440557        -1.316604
 O         3.310455        -1.672480         0.672566
 C         2.432449        -0.655982         1.142819
 H        -0.717706         0.147902         0.659665
 H        -0.428666         0.446534        -1.012164
 H        -0.256885        -1.211003        -0.475130
 H         2.491825         1.930848        -0.390224
 H         1.637120         1.923968         1.138640
 H         4.111993         0.775604         1.757891
 H         5.143367        -0.701440         0.154347
 H         3.796026         0.554888        -1.794533
 H         3.799961        -1.238860        -2.013643
 H         1.932223        -0.929743         1.987036
