19
Iteration:  3281charge 0 multiplicity 1
 C         0.036219        -0.215814        -0.064919
 C         1.514033         0.026293        -0.022291
 C         2.247810         1.434219         0.488093
 C         3.319077         0.487203         1.039337
 C         3.998550        -0.628948         0.027894
 C         3.485096        -0.396445        -1.429529
 O         2.080649        -0.355553        -1.309489
 O         3.305454        -1.643386         0.660015
 C         2.342953        -0.716256         1.143866
 H        -0.372125        -0.667228         0.903458
 H        -0.655549         0.732922        -0.410575
 H        -0.111939        -1.166859        -0.567142
 H         2.544292         2.161658        -0.244384
 H         1.669625         1.880840         1.278119
 H         4.160407         0.948426         1.645066
 H         5.031779        -0.784778         0.143888
 H         4.054816         0.437648        -1.766899
 H         3.785884        -1.283063        -2.051393
 H         1.851065        -1.073790         2.076179
