19
Iteration:   379
 C        -0.002656        -0.060793         0.009916
 C         1.491679         0.019881        -0.055987
 C         2.213769         1.302286         0.354845
 C         3.285604         0.423307         1.126059
 C         4.071924        -0.486656         0.082181
 C         3.535663        -0.345200        -1.329101
 O         1.999310        -0.402686        -1.386419
 O         3.447184        -1.699218         0.626734
 C         2.322826        -0.780648         1.119576
 H        -0.174812        -0.080009         1.095157
 H        -0.556609         0.825805        -0.370710
 H        -0.459927        -1.050692        -0.444072
 H         2.351045         2.037852        -0.510364
 H         1.611048         1.819170         1.080938
 H         3.879338         0.726539         2.090001
 H         5.143658        -0.537100         0.014328
 H         3.870773         0.527833        -1.970679
 H         3.855780        -1.405984        -1.806866
 H         1.776409        -1.019479         2.088048
