19
Iteration:   661charge 0 multiplicity 1
 C         0.023948        -0.124017        -0.238897
 C         1.509628         0.043991         0.055229
 C         2.200253         1.275589         0.502177
 C         3.371703         0.424782         1.067661
 C         4.001768        -0.532129         0.033584
 C         3.428479        -0.311770        -1.428068
 O         2.065358        -0.463114        -1.264832
 O         3.306088        -1.612929         0.613102
 C         2.459968        -0.694306         1.281543
 H        -0.645822         0.088342         0.557629
 H        -0.314598         0.505493        -1.085004
 H        -0.018535        -1.185324        -0.537772
 H         2.492938         2.072141        -0.294923
 H         1.602237         1.637552         1.372490
 H         4.137923         0.847760         1.727015
 H         5.035206        -0.834588        -0.005136
 H         3.695517         0.553181        -1.977321
 H         3.697943        -1.255944        -1.991121
 H         1.888355        -1.113902         2.194560
