19
Iteration:  1026charge 0 multiplicity 1
 C         0.059273        -0.024493        -0.209408
 C         1.535503        -0.005947         0.002469
 C         2.132618         1.376189         0.530778
 C         3.324336         0.506946         1.038454
 C         4.065587        -0.544533        -0.014870
 C         3.471917        -0.454483        -1.401868
 O         1.975393        -0.472696        -1.259940
 O         3.382079        -1.648073         0.721875
 C         2.432127        -0.755408         1.132227
 H        -0.514991        -0.043244         0.848270
 H        -0.240275         0.824682        -0.807383
 H        -0.144783        -0.944675        -0.788455
 H         2.257117         2.181570        -0.243659
 H         1.477374         1.584539         1.306168
 H         4.142985         0.805151         1.818750
 H         5.115387        -0.570148        -0.007763
 H         3.798303         0.549100        -1.717273
 H         3.701427        -1.320201        -2.014673
 H         1.895231        -1.234284         2.091137
