19
Iteration:  2958charge 0 multiplicity 1
 C         0.083351        -0.208064        -0.045253
 C         1.517040         0.046825        -0.083173
 C         2.315182         1.367262         0.473136
 C         3.303572         0.439600         1.073716
 C         4.052157        -0.549717         0.069414
 C         3.425280        -0.360149        -1.394607
 O         2.087915        -0.383622        -1.316654
 O         3.247531        -1.659574         0.565953
 C         2.325846        -0.738621         1.176055
 H        -0.099184         0.027464         1.114223
 H        -0.623207         0.423843        -0.571288
 H        -0.208448        -1.285634        -0.447800
 H         2.547149         2.030856        -0.349935
 H         1.769241         1.777640         1.326535
 H         3.971921         0.970572         1.762545
 H         5.082606        -0.553918         0.288789
 H         3.866727         0.701508        -1.594580
 H         3.760667        -1.226548        -1.984466
 H         1.757193        -1.059533         2.034376
