19
Iteration:  1717
 C         0.001211        -0.024820        -0.008977
 C         1.521956        -0.052205        -0.086772
 C         2.329162         1.266709         0.322113
 C         3.315448         0.471950         1.061534
 C         4.027337        -0.511480         0.057953
 C         3.477308        -0.311022        -1.257580
 O         2.058620        -0.533723        -1.353475
 O         3.332910        -1.647639         0.674089
 C         2.306239        -0.722124         1.131671
 H        -0.351416        -0.154924         1.059978
 H        -0.362002         0.940732        -0.555443
 H        -0.321046        -0.930560        -0.553616
 H         2.480301         2.080357        -0.486767
 H         1.714628         1.815698         1.109435
 H         3.765557         0.985494         1.916821
 H         5.079795        -0.631274        -0.057877
 H         3.576802         0.697595        -1.562413
 H         3.992939        -0.985476        -1.862727
 H         1.880403        -1.246644         2.026989
