19
Iteration:   307charge 0 multiplicity 1
 C         0.054182        -0.165782        -0.177504
 C         1.513007        -0.002848         0.088786
 C         2.193141         1.413201         0.480368
 C         3.387434         0.408340         0.978905
 C         4.043628        -0.549614         0.003142
 C         3.446628        -0.331123        -1.378849
 O         2.013226        -0.403806        -1.216706
 O         3.373988        -1.704705         0.612846
 C         2.335383        -0.714029         1.190308
 H        -0.652656         0.445929         0.427416
 H         0.034948         0.172426        -1.210501
 H        -0.231288        -1.159604        -0.137052
 H         2.347771         2.158883        -0.269233
 H         1.700934         1.971487         1.401675
 H         4.042734         0.633367         1.745847
 H         5.156153        -0.513264         0.092996
 H         3.716308         0.548856        -1.910445
 H         3.676189        -1.103415        -1.945350
 H         1.796038        -1.038641         2.054683
