19
Iteration:  1648charge 0 multiplicity 1
 C        -0.025083        -0.155956        -0.094730
 C         1.504828         0.051693        -0.024907
 C         2.208110         1.357164         0.452222
 C         3.334087         0.467419         1.048833
 C         4.060870        -0.540678         0.019960
 C         3.500352        -0.447673        -1.392465
 O         2.044239        -0.292144        -1.365527
 O         3.351630        -1.703140         0.724298
 C         2.365738        -0.736664         1.169335
 H        -0.692249         0.226162         0.778014
 H        -0.368618         0.156239        -1.024594
 H        -0.110808        -1.264999        -0.038259
 H         2.593301         2.177345        -0.347993
 H         1.736546         1.981266         1.216831
 H         3.808869         0.594055         2.001157
 H         5.151675        -0.781815        -0.060948
 H         4.097284         0.290865        -1.851391
 H         3.671442        -1.457406        -1.834971
 H         1.854270        -0.854158         2.087681
