19
Iteration:  2792
 C        -0.001270        -0.138144        -0.041484
 C         1.521633        -0.028810         0.019752
 C         2.245935         1.344927         0.465971
 C         3.339408         0.450932         1.104746
 C         4.030888        -0.526127         0.029726
 C         3.508980        -0.368131        -1.349368
 O         2.094621        -0.393164        -1.326410
 O         3.313871        -1.639418         0.554285
 C         2.306690        -0.752549         1.104495
 H        -0.478795         0.223912         0.956631
 H        -0.270303         0.633231        -0.837498
 H        -0.224529        -1.182429        -0.335666
 H         2.469326         2.028387        -0.324129
 H         1.864730         1.789303         1.403955
 H         3.954920         0.798442         1.943256
 H         5.048170        -0.786565         0.139404
 H         3.736946         0.562119        -1.824795
 H         3.643939        -1.216456        -1.965317
 H         1.756877        -1.032979         1.993408
