19
Iteration:  1151charge 0 multiplicity 1
 C        -0.015659        -0.010016        -0.177983
 C         1.514573        -0.049985         0.034004
 C         2.174527         1.289389         0.441882
 C         3.350275         0.491995         1.079931
 C         4.089404        -0.474575         0.066398
 C         3.383683        -0.439937        -1.316683
 O         1.996381        -0.401845        -1.302874
 O         3.460812        -1.675373         0.651557
 C         2.393886        -0.784081         1.166472
 H        -0.590791         0.324403         0.602716
 H        -0.172912         0.876632        -0.934581
 H        -0.250468        -0.941427        -0.736081
 H         2.352195         2.000516        -0.282034
 H         1.504391         1.754625         1.216067
 H         3.988996         0.928593         1.784224
 H         5.195092        -0.776830         0.050067
 H         3.869903         0.370056        -2.007889
 H         3.751225        -1.308914        -1.943060
 H         1.814307        -1.187032         1.956655
