19
Iteration:   437
 C        -0.035547        -0.146321        -0.188396
 C         1.530403        -0.033390         0.046226
 C         2.263568         1.290217         0.487319
 C         3.414665         0.449587         1.031375
 C         4.039033        -0.495373        -0.031388
 C         3.450728        -0.309521        -1.335374
 O         2.045632        -0.441358        -1.235172
 O         3.302902        -1.655902         0.623292
 C         2.359841        -0.734747         1.171055
 H        -0.650770         0.261859         0.674597
 H        -0.209326         0.475882        -1.075751
 H        -0.397187        -1.168193        -0.289509
 H         2.399362         2.143272        -0.092105
 H         1.700527         1.731423         1.329806
 H         4.116633         0.819209         1.681485
 H         5.111331        -0.614561         0.065552
 H         3.832882         0.770508        -1.713899
 H         3.867674        -1.013086        -2.156792
 H         1.842651        -1.019698         2.005663
