19
Iteration:  1883
 C        -0.019982         0.043025        -0.005789
 C         1.489862        -0.012713        -0.072597
 C         2.203302         1.299041         0.363976
 C         3.249169         0.456027         1.057078
 C         4.074675        -0.525405         0.050077
 C         3.577065        -0.364410        -1.283131
 O         1.990998        -0.527696        -1.356909
 O         3.397407        -1.664587         0.640418
 C         2.415474        -0.791576         1.167540
 H        -0.563731         0.028530         0.832867
 H        -0.308571         0.949906        -0.634367
 H        -0.280284        -0.815742        -0.644060
 H         2.603689         1.980642        -0.382022
 H         1.700560         2.011230         1.160215
 H         3.739523         0.876029         1.974357
 H         5.127023        -0.376075         0.047933
 H         3.662689         0.689207        -1.560599
 H         3.759697        -1.152154        -1.930848
 H         1.935042        -1.292071         2.078132
