19
Iteration:   153
 C        -0.053058        -0.069690        -0.057099
 C         1.487705        -0.048248         0.005335
 C         2.195738         1.324787         0.485987
 C         3.324429         0.460312         1.130189
 C         4.047189        -0.503257         0.024790
 C         3.478934        -0.497038        -1.366160
 O         2.022122        -0.325822        -1.409350
 O         3.471639        -1.591465         0.636422
 C         2.372624        -0.793301         1.136590
 H        -0.578838         0.296561         0.786839
 H        -0.431725         0.394095        -0.954116
 H        -0.275588        -1.141909        -0.149551
 H         2.408978         2.063187        -0.231996
 H         1.567578         1.823237         1.307185
 H         3.963232         0.787798         1.932923
 H         5.176511        -0.594574        -0.023764
 H         3.998815         0.300500        -2.003872
 H         3.688079        -1.432096        -1.755321
 H         1.806862        -1.216628         1.946295
