19
Iteration:  4404
 C         0.053813        -0.018275        -0.054994
 C         1.594399         0.017399        -0.040819
 C         2.245112         1.278548         0.533868
 C         3.307867         0.428239         1.114880
 C         4.013419        -0.457797         0.015682
 C         3.374001        -0.298515        -1.394573
 O         2.000090        -0.544175        -1.304065
 O         3.376170        -1.672213         0.555509
 C         2.382839        -0.780817         1.157555
 H        -0.328734         0.976325        -0.445273
 H        -0.161950        -0.853447        -0.729103
 H        -0.331447        -0.008977         0.954559
 H         2.454266         1.887225        -0.313509
 H         1.676787         1.818438         1.215531
 H         3.891334         0.737228         1.955541
 H         5.113163        -0.441606         0.069092
 H         3.647370         0.636581        -1.989704
 H         3.859330        -1.039558        -1.986274
 H         1.964146        -1.202165         2.070969
