19
Iteration:  4870charge 0 multiplicity 1
 C         0.001691        -0.045846        -0.048742
 C         1.510116         0.055392        -0.055586
 C         2.228583         1.364534         0.486473
 C         3.322684         0.416709         1.096415
 C         4.053802        -0.535532         0.033009
 C         3.439395        -0.317547        -1.338022
 O         2.016862        -0.432368        -1.358201
 O         3.400163        -1.756021         0.623774
 C         2.407108        -0.788315         1.107389
 H        -0.718933         0.692547        -0.599977
 H        -0.143226        -1.120755        -0.410389
 H        -0.305362         0.132561         0.950388
 H         2.363401         2.230157        -0.106443
 H         1.637644         1.756406         1.293803
 H         3.852517         0.847623         1.909889
 H         5.122077        -0.720280        -0.025301
 H         3.893445         0.657857        -1.847239
 H         3.654273        -1.095856        -2.006830
 H         1.877532        -1.083625         2.023365
