19
Iteration:  1025charge 0 multiplicity 1
 C         0.055528        -0.021750        -0.203358
 C         1.529484        -0.006471         0.005933
 C         2.137394         1.377682         0.533466
 C         3.320691         0.501993         1.031695
 C         4.073542        -0.542717        -0.016234
 C         3.472893        -0.448958        -1.401995
 O         1.982387        -0.482171        -1.265321
 O         3.380396        -1.645780         0.719801
 C         2.424993        -0.751424         1.137221
 H        -0.540854        -0.065953         0.855750
 H        -0.203987         0.827217        -0.810540
 H        -0.161276        -0.946181        -0.784735
 H         2.269484         2.204995        -0.244271
 H         1.463687         1.612865         1.309047
 H         4.143078         0.779899         1.821015
 H         5.130379        -0.564840         0.021154
 H         3.777177         0.529122        -1.722488
 H         3.700902        -1.307044        -2.030807
 H         1.906313        -1.243766         2.082739
