19
Iteration:  2141charge 0 multiplicity 1
 C        -0.066727        -0.099505        -0.138023
 C         1.486975         0.027613        -0.025310
 C         2.287333         1.305360         0.496836
 C         3.462542         0.438487         1.083110
 C         4.019514        -0.530365         0.016539
 C         3.483053        -0.324881        -1.363923
 O         1.962116        -0.396949        -1.319405
 O         3.362320        -1.708253         0.676321
 C         2.386206        -0.736804         1.114808
 H        -0.607071         0.548503         0.580936
 H        -0.393750         0.116281        -1.106143
 H        -0.350189        -1.155120         0.041589
 H         2.579210         2.074417        -0.278411
 H         1.686151         1.835115         1.240742
 H         4.107535         0.612561         1.925160
 H         5.147916        -0.595225         0.002710
 H         3.757465         0.687466        -1.630844
 H         3.716765        -1.234279        -1.895402
 H         1.920870        -1.085504         2.005665
