19
Iteration:  2796charge 0 multiplicity 1
 C         0.014114        -0.169122        -0.031837
 C         1.534131        -0.010377         0.033462
 C         2.232440         1.363520         0.471185
 C         3.338067         0.442238         1.092401
 C         3.988167        -0.536462         0.047155
 C         3.486618        -0.344503        -1.387346
 O         2.118833        -0.386426        -1.325999
 O         3.274816        -1.665238         0.574955
 C         2.330758        -0.740721         1.093276
 H        -0.337483         0.231084         0.970582
 H        -0.173053         0.478204        -0.835921
 H        -0.278280        -1.230019        -0.396189
 H         2.626655         2.090583        -0.313205
 H         1.860968         1.908949         1.363656
 H         3.907939         0.802755         1.959833
 H         5.076012        -0.741205         0.117448
 H         3.739828         0.679575        -1.891605
 H         3.798156        -1.309532        -2.007729
 H         1.849397        -1.058338         2.032946
