19
Iteration:   893
 C        -0.061653        -0.185413        -0.141935
 C         1.520854        -0.007490         0.025715
 C         2.217192         1.352651         0.444374
 C         3.417325         0.472315         1.045594
 C         4.024864        -0.532130         0.089613
 C         3.507147        -0.395439        -1.378739
 O         1.987626        -0.419499        -1.300738
 O         3.318482        -1.655168         0.658894
 C         2.441799        -0.651307         1.162593
 H        -0.744509         0.218944         0.610309
 H        -0.365127         0.355411        -0.976360
 H        -0.148010        -1.193775        -0.475452
 H         2.550298         1.979880        -0.394948
 H         1.629740         1.860551         1.128986
 H         4.175250         0.785549         1.807743
 H         5.024378        -0.725274         0.170358
 H         3.927698         0.600917        -1.876672
 H         3.800723        -1.259172        -2.005139
 H         1.902515        -0.985114         2.124642
