19
Iteration:  4172
 C         0.013869        -0.213026        -0.038287
 C         1.509892         0.048916        -0.024534
 C         2.270730         1.431602         0.548690
 C         3.349337         0.478564         0.983526
 C         4.008716        -0.616694        -0.026394
 C         3.497810        -0.307002        -1.332128
 O         2.054422        -0.387263        -1.298113
 O         3.273076        -1.747749         0.536120
 C         2.381876        -0.659167         1.203971
 H        -0.569656         0.067204        -0.976733
 H         0.071298        -1.400237        -0.047705
 H        -0.608167         0.059652         0.837097
 H         2.545693         2.192223        -0.217100
 H         1.680311         1.920550         1.354684
 H         4.070461         0.792007         1.825716
 H         5.147946        -0.750022         0.013482
 H         4.050076         0.537057        -1.716911
 H         3.713107        -1.184720        -1.957391
 H         1.732952        -0.948792         2.099635
