19
Iteration:   244charge 0 multiplicity 1
 C         0.080618        -0.103056         0.053429
 C         1.562447        -0.026759        -0.087775
 C         2.212787         1.350044         0.359119
 C         3.181748         0.492932         1.096354
 C         4.073145        -0.555238         0.058294
 C         3.492688        -0.320492        -1.394934
 O         2.067148        -0.423932        -1.265399
 O         3.354283        -1.652752         0.603285
 C         2.314620        -0.810195         1.107162
 H         0.001088         0.138581         1.173522
 H        -0.568278         0.625020        -0.504186
 H        -0.260164        -1.048936        -0.280797
 H         2.792086         1.878399        -0.365950
 H         1.604275         1.919813         1.032096
 H         3.817237         0.960131         1.942124
 H         5.165677        -0.692753         0.145037
 H         3.792969         0.736401        -1.772153
 H         3.734416        -1.197030        -2.111688
 H         1.624252        -1.340470         1.839375
