19
Iteration:  2201charge 0 multiplicity 1
 C        -0.005011        -0.067237         0.034086
 C         1.531538        -0.040233        -0.041779
 C         2.259179         1.320250         0.410832
 C         3.316300         0.468213         1.055357
 C         4.073663        -0.516225         0.045528
 C         3.553698        -0.363354        -1.370324
 O         2.047445        -0.470565        -1.281402
 O         3.278191        -1.655194         0.592846
 C         2.298163        -0.741027         1.068753
 H        -0.353845         0.079173         1.089919
 H        -0.307700         0.853136        -0.608969
 H        -0.421966        -1.016545        -0.310335
 H         2.540050         2.053988        -0.302754
 H         1.714308         1.824618         1.233664
 H         3.824505         0.580552         2.091845
 H         5.138168        -0.537005         0.055941
 H         3.990495         0.536343        -1.819054
 H         3.908361        -1.040373        -2.138868
 H         1.887208        -0.970766         2.096953
