19
Iteration:  4708
 C         0.073617        -0.000104        -0.113089
 C         1.557592        -0.091624         0.005025
 C         2.187566         1.276313         0.490155
 C         3.353366         0.445574         1.108465
 C         4.042226        -0.546332        -0.032444
 C         3.401238        -0.256215        -1.408958
 O         2.016773        -0.408198        -1.292053
 O         3.325290        -1.686889         0.662107
 C         2.420575        -0.820719         1.150958
 H        -0.292050         0.693134        -0.937630
 H        -0.278349        -1.004794        -0.271400
 H        -0.345816         0.330399         0.766767
 H         2.434195         2.077097        -0.230773
 H         1.647120         1.801470         1.328170
 H         3.917214         0.727644         1.950433
 H         5.098450        -0.716027        -0.204888
 H         3.622276         0.765333        -1.745993
 H         3.871049        -0.965586        -2.166148
 H         1.881679        -1.194997         1.997352
