19
Iteration:   284charge 0 multiplicity 1
 C        -0.002028        -0.070699        -0.180178
 C         1.516165        -0.044642        -0.012890
 C         2.212750         1.290648         0.542914
 C         3.329768         0.508900         1.082470
 C         4.032747        -0.518174        -0.010884
 C         3.447215        -0.431908        -1.394741
 O         1.995478        -0.346682        -1.319002
 O         3.403647        -1.672967         0.657120
 C         2.446676        -0.782310         1.202953
 H        -0.471024         0.571230         0.567927
 H        -0.271242         0.256177        -1.185722
 H        -0.386919        -1.031944         0.074127
 H         2.403909         2.100458        -0.135611
 H         1.497197         1.774043         1.366415
 H         3.847018         0.951176         1.827096
 H         5.147722        -0.598195        -0.023478
 H         3.839362         0.401035        -1.941876
 H         3.688769        -1.234421        -1.940710
 H         1.985428        -1.217025         2.032755
