19
Iteration:  2969charge 0 multiplicity 1
 C         0.035953        -0.212106        -0.015259
 C         1.550003         0.048072        -0.076821
 C         2.277985         1.398815         0.437960
 C         3.345811         0.448140         1.046090
 C         4.018945        -0.549815         0.096498
 C         3.524386        -0.369901        -1.284331
 O         2.026835        -0.332137        -1.305737
 O         3.272062        -1.720535         0.592834
 C         2.327802        -0.702885         1.034736
 H        -0.395960        -0.127485         1.080910
 H        -0.589822         0.266837        -0.740170
 H         0.021554        -1.382935        -0.118208
 H         2.503524         2.275946        -0.166027
 H         1.827380         1.848311         1.329052
 H         3.892659         0.754093         1.954708
 H         5.051093        -0.733062         0.002796
 H         3.868456         0.501792        -1.947903
 H         3.698042        -1.184885        -1.986028
 H         1.831331        -1.014837         1.931685
