19
Iteration:  3146
 C         0.034560        -0.161866        -0.077475
 C         1.485663         0.031826         0.048989
 C         2.217218         1.391187         0.456890
 C         3.322130         0.410944         0.983325
 C         4.022289        -0.521766         0.057274
 C         3.523119        -0.420255        -1.442965
 O         2.033105        -0.350199        -1.296642
 O         3.313870        -1.674824         0.626037
 C         2.388271        -0.728452         1.222156
 H        -0.574797        -0.259018         0.842573
 H        -0.292258         0.653872        -0.807459
 H         0.141536        -1.143148        -0.738073
 H         2.565073         2.070193        -0.340733
 H         1.750619         1.964960         1.257963
 H         3.891220         0.846084         1.831285
 H         5.053634        -0.687195         0.243412
 H         3.837420         0.500501        -1.940540
 H         3.752667        -1.359505        -1.884422
 H         1.864238        -1.122359         2.094314
