19
Iteration:  2451charge 0 multiplicity 1
 C         0.007409         0.007559         0.018404
 C         1.522727        -0.009872        -0.045558
 C         2.235972         1.320782         0.427523
 C         3.295177         0.391251         1.047984
 C         4.065760        -0.452002         0.050565
 C         3.509272        -0.317703        -1.356383
 O         2.090774        -0.581560        -1.317182
 O         3.317251        -1.698060         0.588572
 C         2.298739        -0.724645         1.108857
 H        -0.208752         0.248450         1.018916
 H        -0.551502         0.638223        -0.750827
 H        -0.381762        -0.966839        -0.224185
 H         2.612572         2.206437        -0.143155
 H         1.793540         1.938900         1.256606
 H         3.900290         0.929561         1.856812
 H         5.118779        -0.493565         0.136343
 H         3.893802         0.620042        -1.716521
 H         3.917889        -1.129948        -1.917695
 H         1.618876        -1.032678         1.924655
