19
Iteration:  1042charge 0 multiplicity 1
 C         0.053284        -0.095407        -0.189229
 C         1.539398         0.004103        -0.029304
 C         2.167651         1.254611         0.470772
 C         3.364909         0.526387         1.044235
 C         3.967750        -0.518905         0.046519
 C         3.363409        -0.461710        -1.338012
 O         2.039881        -0.307734        -1.337566
 O         3.450144        -1.735053         0.695030
 C         2.418320        -0.702959         1.219617
 H        -0.416928        -0.054360         0.685525
 H        -0.260522         0.741658        -0.900410
 H        -0.304577        -1.052314        -0.544512
 H         2.234604         2.089315        -0.185571
 H         1.604372         1.730908         1.371512
 H         3.878516         0.967354         1.816697
 H         5.120222        -0.650411        -0.002901
 H         3.827184         0.304811        -2.062954
 H         3.591861        -1.451915        -1.831201
 H         1.856348        -0.932328         2.047763
