19
Iteration:   943charge 0 multiplicity 1
 C        -0.022138        -0.188876        -0.025905
 C         1.490893         0.052688        -0.068259
 C         2.242833         1.343508         0.463181
 C         3.322724         0.491668         1.061492
 C         4.082135        -0.578903         0.082081
 C         3.499808        -0.480776        -1.364369
 O         2.043483        -0.339381        -1.434016
 O         3.364950        -1.639945         0.671559
 C         2.344248        -0.674889         1.162735
 H        -0.477172         0.346128         0.802143
 H        -0.586365         0.184746        -0.993104
 H        -0.185971        -1.300673         0.038813
 H         2.281028         2.198448        -0.213033
 H         1.693952         1.684038         1.497811
 H         3.798778         0.944484         1.871373
 H         5.256932        -0.750237         0.040316
 H         3.941798         0.317891        -1.872669
 H         3.752714        -1.399564        -1.937663
 H         1.928317        -1.042983         2.034489
