19
Iteration:   853charge 0 multiplicity 1
 C         0.090137        -0.032522         0.139038
 C         1.583472        -0.034359        -0.093477
 C         2.202673         1.302056         0.303125
 C         3.219180         0.492475         1.136587
 C         4.010504        -0.475879         0.089481
 C         3.507689        -0.314841        -1.355709
 O         2.106014        -0.538850        -1.401896
 O         3.303961        -1.674233         0.642267
 C         2.329871        -0.793795         1.109234
 H        -0.230835         0.016102         1.270345
 H        -0.262042         0.847914        -0.494129
 H        -0.371037        -0.960470        -0.340010
 H         2.552700         1.782261        -0.713646
 H         1.465851         2.133832         0.772967
 H         3.955709         0.847587         1.970045
 H         5.158781        -0.375577         0.377196
 H         3.715228         0.633891        -1.757150
 H         3.987197        -1.003399        -2.001797
 H         1.610291        -1.158935         1.933343
