19
Iteration:  4979charge 0 multiplicity 1
 C        -0.003129         0.053001        -0.032881
 C         1.520478        -0.090264         0.055888
 C         2.169454         1.267406         0.412589
 C         3.340204         0.456785         1.035589
 C         4.055886        -0.444744         0.054390
 C         3.402603        -0.292340        -1.318716
 O         2.008317        -0.436451        -1.343393
 O         3.438378        -1.714722         0.617971
 C         2.436932        -0.869886         1.134832
 H        -0.141696         0.941930        -0.768242
 H        -0.660692        -0.636860        -0.654673
 H        -0.305594         0.282340         0.924622
 H         2.396961         1.818933        -0.498408
 H         1.566639         1.863194         1.090506
 H         3.760568         0.791373         1.971055
 H         5.128036        -0.592608         0.121009
 H         4.006461         0.540289        -1.726072
 H         3.730729        -1.032560        -1.977322
 H         1.768974        -1.442745         1.831882
