19
Iteration:  4780charge 0 multiplicity 1
 C         0.071954        -0.202154        -0.041456
 C         1.599490         0.056448        -0.046580
 C         2.257116         1.328825         0.490190
 C         3.335863         0.485125         1.077699
 C         3.988754        -0.583383         0.031724
 C         3.432298        -0.321475        -1.375129
 O         2.041807        -0.291790        -1.377738
 O         3.239105        -1.717800         0.585024
 C         2.406706        -0.786706         1.176190
 H        -0.471924         0.454690        -0.714208
 H        -0.053652        -1.341225         0.010524
 H        -0.213641         0.112408         1.080582
 H         2.406686         2.172504        -0.192128
 H         1.501967         1.710364         1.167431
 H         4.145644         0.713729         1.869522
 H         5.088288        -0.665555         0.209879
 H         4.046205         0.617587        -1.734198
 H         3.714055        -1.150550        -2.023665
 H         1.695500        -1.107376         2.054976
