19
Iteration:  4076
 C         0.019471         0.015203        -0.058199
 C         1.474978        -0.083337         0.031421
 C         2.170089         1.360893         0.470854
 C         3.299689         0.445595         1.100144
 C         4.058932        -0.407073        -0.001296
 C         3.523697        -0.305787        -1.391908
 O         2.023736        -0.495702        -1.283030
 O         3.337169        -1.725015         0.562204
 C         2.440535        -0.866555         1.192710
 H        -0.184769         0.931470        -0.681198
 H        -0.476157        -0.862942        -0.575651
 H        -0.371063         0.174090         0.864348
 H         2.773550         1.960549        -0.365498
 H         1.437790         2.005485         1.054201
 H         3.984364         0.893762         1.966764
 H         5.185242        -0.457679        -0.130588
 H         3.672051         0.648783        -2.085672
 H         3.936630        -1.184818        -1.844793
 H         1.880398        -1.412639         2.015247
