19
Iteration:  3995
 C         0.076556        -0.175226        -0.006421
 C         1.547423         0.019124        -0.019351
 C         2.241899         1.335400         0.432260
 C         3.301387         0.450835         1.044621
 C         4.015505        -0.463093         0.084524
 C         3.438770        -0.411486        -1.359588
 O         2.082834        -0.276614        -1.282354
 O         3.309984        -1.732291         0.566986
 C         2.350551        -0.773081         1.098383
 H        -0.444045         0.729819        -0.157427
 H        -0.272047        -0.907028        -0.674554
 H        -0.113633        -0.512670         1.090432
 H         2.296566         1.937125        -0.500778
 H         1.879936         2.030911         1.234412
 H         3.735777         0.775263         1.892269
 H         5.086332        -0.389616         0.078898
 H         3.918498         0.357208        -2.107166
 H         3.693254        -1.441609        -1.797840
 H         1.733171        -1.142727         1.898015
