19
Iteration:  3528charge 0 multiplicity 1
 C        -0.048216        -0.043695        -0.031225
 C         1.515935        -0.007563        -0.015633
 C         2.230953         1.247292         0.456859
 C         3.359052         0.444677         0.966066
 C         4.074506        -0.514552         0.055514
 C         3.479895        -0.326954        -1.386832
 O         2.059004        -0.415824        -1.313232
 O         3.347925        -1.666743         0.656013
 C         2.336865        -0.774822         1.145600
 H        -0.423605         0.022353         0.962668
 H        -0.547599         0.698040        -0.595144
 H        -0.379092        -1.031692        -0.652017
 H         2.477092         2.026533        -0.323966
 H         1.756310         1.902957         1.198794
 H         3.917492         0.774479         1.860984
 H         5.218340        -0.694162         0.070998
 H         3.867037         0.703560        -1.642851
 H         3.784260        -1.205861        -1.957721
 H         1.894848        -1.089672         2.113396
