19
Iteration:   199charge 0 multiplicity 1
 C        -0.000442        -0.236646        -0.114728
 C         1.516055         0.047633         0.001342
 C         2.213120         1.415599         0.435682
 C         3.403100         0.467317         1.016954
 C         4.046615        -0.629343         0.027562
 C         3.503540        -0.350164        -1.415899
 O         2.034840        -0.406116        -1.241332
 O         3.322380        -1.634468         0.647518
 C         2.363220        -0.738508         1.171490
 H        -0.456450        -0.253005         0.919677
 H        -0.457274         0.680597        -0.570097
 H        -0.245239        -0.980271        -0.732086
 H         2.253363         2.151726        -0.242648
 H         1.668550         1.727094         1.319757
 H         3.994719         0.823936         1.825774
 H         5.128668        -0.691241         0.130185
 H         3.728637         0.740520        -1.694569
 H         3.754764        -1.049021        -2.162846
 H         1.837848        -1.132355         2.045202
