19
Iteration:  2950
 C         0.061253        -0.175966        -0.049500
 C         1.558443         0.056183        -0.017976
 C         2.249790         1.314546         0.449181
 C         3.341869         0.455928         1.080949
 C         4.007562        -0.525980         0.023410
 C         3.498036        -0.319409        -1.416225
 O         2.059454        -0.422804        -1.330395
 O         3.240040        -1.655385         0.586128
 C         2.346254        -0.750784         1.229025
 H        -0.320818        -0.146385         0.974036
 H        -0.368621         0.682257        -0.516920
 H        -0.208169        -1.207995        -0.382084
 H         2.651196         2.000691        -0.328637
 H         1.593265         1.924080         1.051011
 H         4.012949         0.721673         1.904411
 H         5.059040        -0.678903         0.249113
 H         3.802650         0.622793        -1.770419
 H         3.988656        -1.070114        -2.071460
 H         1.699315        -1.170140         2.014766
