19
Iteration:   702
 C         0.055742         0.036718        -0.024904
 C         1.517005         0.035998        -0.075717
 C         2.179836         1.285091         0.369178
 C         3.239543         0.442642         1.052774
 C         4.028247        -0.503492         0.032250
 C         3.472370        -0.318525        -1.323598
 O         2.042891        -0.500800        -1.287323
 O         3.443296        -1.658547         0.687848
 C         2.352324        -0.854358         1.089597
 H        -0.308044        -0.005609         1.027544
 H        -0.373964         0.879517        -0.667408
 H        -0.244765        -0.967331        -0.500036
 H         2.498119         1.898969        -0.419726
 H         1.563411         1.883123         1.084893
 H         3.771673         0.797771         2.001812
 H         5.176435        -0.468731         0.111161
 H         3.792259         0.717453        -1.695787
 H         3.820131        -1.298148        -1.921526
 H         1.850087        -1.299652         1.940897
