19
Iteration:  3278
 C         0.031187        -0.217053        -0.069386
 C         1.515815         0.028022        -0.025249
 C         2.260605         1.436163         0.499197
 C         3.304422         0.502288         1.023912
 C         3.992609        -0.625195         0.006768
 C         3.480157        -0.409325        -1.405704
 O         2.078989        -0.349811        -1.335924
 O         3.292139        -1.656793         0.676580
 C         2.372779        -0.731721         1.180051
 H        -0.302004        -0.571793         0.885631
 H        -0.585662         0.675212        -0.434564
 H        -0.096407        -1.239500        -0.642750
 H         2.533837         2.268509        -0.215633
 H         1.631730         1.840239         1.314388
 H         4.179663         0.972533         1.598490
 H         5.068586        -0.740643         0.192404
 H         4.082464         0.478079        -1.794845
 H         3.698001        -1.202643        -2.150388
 H         1.820892        -1.088261         2.086845
