19
Iteration:  1063charge 0 multiplicity 1
 C        -0.046255        -0.190767        -0.064342
 C         1.521000         0.023319         0.007906
 C         2.214189         1.356884         0.427590
 C         3.299915         0.430142         1.069476
 C         4.046569        -0.515187         0.016457
 C         3.600217        -0.520928        -1.382549
 O         1.998174        -0.225763        -1.342866
 O         3.367579        -1.627684         0.727797
 C         2.370519        -0.793012         1.106765
 H        -0.473746         0.036810         0.815841
 H        -0.564821         0.458460        -0.854621
 H        -0.380283        -1.230136        -0.177199
 H         2.425831         1.983159        -0.354865
 H         1.803771         2.106594         1.166527
 H         3.866600         0.733913         1.861134
 H         5.184269        -0.670636         0.111701
 H         4.094708         0.288977        -2.064675
 H         3.781691        -1.429894        -1.982598
 H         1.799505        -1.020065         1.952624
