19
Iteration:  4653charge 0 multiplicity 1
 C         0.034518        -0.007056         0.010172
 C         1.591112        -0.050577        -0.040135
 C         2.210561         1.283554         0.414192
 C         3.284010         0.445917         1.160930
 C         3.979620        -0.536682         0.071853
 C         3.457294        -0.354455        -1.447109
 O         1.992593        -0.393424        -1.337840
 O         3.421447        -1.679744         0.571197
 C         2.360571        -0.788383         1.191554
 H        -0.371366         1.010773        -0.237192
 H        -0.235784        -0.661824        -0.823722
 H        -0.194922        -0.382602         0.924482
 H         2.741831         1.944986        -0.290060
 H         1.569353         1.906305         1.137795
 H         3.897033         0.752598         1.988880
 H         5.058926        -0.394770         0.068192
 H         3.674001         0.648728        -1.919036
 H         3.922819        -1.231093        -2.074925
 H         1.763351        -1.253657         1.958735
