19
Iteration:  3221charge 0 multiplicity 1
 C        -0.044774        -0.043302        -0.069640
 C         1.479641         0.050712         0.005385
 C         2.234092         1.393234         0.402955
 C         3.276068         0.412252         1.106107
 C         4.030021        -0.416523         0.054569
 C         3.518148        -0.341686        -1.341603
 O         2.065685        -0.464328        -1.299929
 O         3.375623        -1.786097         0.562928
 C         2.397079        -0.809990         1.143396
 H        -0.460114         0.601713         0.724394
 H        -0.480101         0.128377        -0.986724
 H        -0.197934        -1.168609         0.154690
 H         2.563495         2.042910        -0.460372
 H         1.619962         2.014763         1.124897
 H         3.926899         0.700408         1.913582
 H         5.174647        -0.403348         0.189351
 H         3.835816         0.538813        -1.949665
 H         3.744633        -1.275456        -1.852479
 H         1.991718        -1.033844         2.123328
