19
Iteration:  3990
 C         0.028927        -0.146119        -0.000002
 C         1.526817         0.007873         0.003814
 C         2.222462         1.379963         0.447167
 C         3.323181         0.469239         1.067394
 C         4.023577        -0.478994         0.053545
 C         3.442388        -0.440921        -1.381099
 O         2.071922        -0.297400        -1.275309
 O         3.352923        -1.728177         0.556554
 C         2.341065        -0.774209         1.058530
 H        -0.555322         0.806051        -0.253997
 H        -0.191029        -1.060280        -0.675192
 H        -0.179932        -0.459464         1.000459
 H         2.609577         2.005100        -0.381793
 H         1.688047         2.038805         1.122381
 H         3.902861         0.848931         2.037514
 H         5.133830        -0.517215         0.307848
 H         3.845749         0.341547        -1.944991
 H         3.770869        -1.408875        -1.752484
 H         1.739518        -1.302729         1.849140
