19
Iteration:    60
 C         0.051627        -0.152178        -0.135161
 C         1.587958        -0.019817        -0.009953
 C         2.174826         1.361492         0.550452
 C         3.338171         0.489163         1.092360
 C         4.063404        -0.503274         0.031455
 C         3.416689        -0.478162        -1.408171
 O         1.958778        -0.305426        -1.370857
 O         3.392921        -1.695703         0.709163
 C         2.415012        -0.722217         1.127478
 H        -0.501048        -0.147816         0.896185
 H        -0.487486         0.645517        -0.763961
 H        -0.205229        -1.156478        -0.579152
 H         2.393257         2.093867        -0.423216
 H         1.491824         1.820474         1.289247
 H         4.011268         0.805536         1.881465
 H         5.131133        -0.610564         0.005349
 H         3.809288         0.438250        -2.008657
 H         3.684575        -1.487102        -1.963288
 H         1.938123        -0.999462         2.079761
