19
Iteration:  1585charge 0 multiplicity 1
 C         0.035337        -0.031977        -0.120815
 C         1.530782        -0.034773         0.041922
 C         2.253149         1.352896         0.343883
 C         3.310836         0.470951         1.037085
 C         4.067925        -0.515626         0.054611
 C         3.494070        -0.281639        -1.322825
 O         2.062837        -0.540647        -1.179207
 O         3.340009        -1.693780         0.584860
 C         2.298142        -0.766055         1.105899
 H        -0.387169         0.057658         0.977786
 H        -0.408222         0.660586        -0.842946
 H        -0.383306        -1.033005        -0.247710
 H         2.580411         2.021969        -0.410739
 H         1.704168         1.899972         1.091166
 H         3.710211         0.991644         1.876651
 H         5.101143        -0.723160         0.094387
 H         3.715959         0.812682        -1.849032
 H         3.777473        -1.035853        -2.014592
 H         1.727675        -1.153958         1.965029
