19
Iteration:  4891charge 0 multiplicity 1
 C         0.027306        -0.236312         0.029795
 C         1.539110        -0.016363         0.007315
 C         2.274605         1.314266         0.437309
 C         3.373196         0.451069         1.016952
 C         4.008533        -0.596831         0.032549
 C         3.525693        -0.332290        -1.347418
 O         2.020593        -0.227170        -1.348873
 O         3.287175        -1.708269         0.614463
 C         2.344494        -0.721874         1.143136
 H        -0.512347         0.317114        -0.763903
 H        -0.298415        -1.312204        -0.147685
 H        -0.405634         0.263563         0.850195
 H         2.508130         1.980463        -0.374209
 H         1.720094         1.927456         1.119597
 H         3.995202         0.603010         1.880301
 H         5.093776        -0.634702         0.125798
 H         3.966938         0.675574        -1.730430
 H         3.769427        -1.028253        -2.100216
 H         1.586662        -1.081961         1.860366
