19
Iteration:  4299
 C        -0.025158        -0.268963        -0.018758
 C         1.495637        -0.001426         0.010848
 C         2.285299         1.370409         0.467196
 C         3.330126         0.451747         1.017152
 C         4.071216        -0.607533         0.027452
 C         3.485444        -0.334821        -1.314144
 O         2.033221        -0.219678        -1.300571
 O         3.333960        -1.715682         0.579537
 C         2.328153        -0.715921         1.071227
 H        -0.503113         0.071857        -0.888927
 H        -0.217241        -1.303061         0.004954
 H        -0.442343         0.212148         0.964257
 H         2.509055         2.047603        -0.444968
 H         2.030943         2.055455         1.346197
 H         3.986033         0.830333         1.764260
 H         5.110798        -0.871502         0.059695
 H         3.873571         0.574822        -1.639773
 H         3.789380        -1.264539        -1.914002
 H         1.800031        -1.023547         1.954862
