19
Iteration:   786charge 0 multiplicity 1
 C         0.061417        -0.209986        -0.255979
 C         1.524552         0.031272        -0.004334
 C         2.225795         1.270270         0.487450
 C         3.451315         0.447804         1.006470
 C         4.021783        -0.518485         0.044443
 C         3.392768        -0.409402        -1.402711
 O         2.014255        -0.378236        -1.308622
 O         3.271704        -1.638798         0.691743
 C         2.425210        -0.640672         1.316771
 H        -0.628643         0.105439         0.609739
 H        -0.150753         0.245378        -1.217988
 H        -0.227239        -1.291895        -0.272921
 H         2.428181         2.192955        -0.219176
 H         1.597921         1.703179         1.368457
 H         4.267655         0.876375         1.692010
 H         5.183502        -0.557478         0.080478
 H         3.718166         0.545740        -1.687846
 H         3.585328        -1.068013        -2.192083
 H         1.877894        -1.046869         2.213164
