19
Iteration:  2768charge 0 multiplicity 1
 C        -0.041252         0.015218        -0.115475
 C         1.480376         0.023059        -0.053779
 C         2.152787         1.322922         0.452121
 C         3.300427         0.427411         1.080399
 C         4.032115        -0.465925         0.062195
 C         3.468868        -0.352629        -1.353634
 O         2.031593        -0.430436        -1.301609
 O         3.435044        -1.761481         0.629711
 C         2.468883        -0.841982         1.118911
 H        -0.341466         0.248913         0.887362
 H        -0.260806         1.017410        -0.708087
 H        -0.372198        -0.910932        -0.462741
 H         2.545955         2.053566        -0.227677
 H         1.684367         1.750243         1.325633
 H         3.844800         0.803637         1.963924
 H         5.145745        -0.514142         0.181052
 H         3.616520         0.500987        -1.924774
 H         3.715525        -1.217656        -1.888486
 H         2.073015        -1.125324         2.117308
