19
Iteration:  4419charge 0 multiplicity 1
 C        -0.000123        -0.089204        -0.004793
 C         1.481500         0.010270        -0.073118
 C         2.255085         1.410164         0.469115
 C         3.364540         0.436690         1.094688
 C         4.045491        -0.467183         0.064994
 C         3.488353        -0.404920        -1.329649
 O         1.988528        -0.456193        -1.316073
 O         3.383334        -1.685145         0.548244
 C         2.374425        -0.765618         1.047394
 H        -0.528553         0.808886        -0.166912
 H        -0.460525        -0.841898        -0.621438
 H        -0.202514        -0.480380         1.073778
 H         2.674826         2.344248        -0.019659
 H         1.584677         1.660448         1.343767
 H         3.954771         0.649918         2.007097
 H         5.128823        -0.550654         0.013949
 H         3.761422         0.601068        -1.741113
 H         3.749999        -1.304453        -1.898033
 H         1.740461        -1.108656         1.866625
