19
Iteration:  3688charge 0 multiplicity 1
 C        -0.044135        -0.120348         0.023768
 C         1.544154        -0.011862         0.031065
 C         2.218234         1.323517         0.286885
 C         3.308130         0.491209         1.072039
 C         4.020166        -0.609494         0.104914
 C         3.533501        -0.337074        -1.372705
 O         2.041819        -0.392959        -1.420569
 O         3.286287        -1.686436         0.636191
 C         2.441422        -0.742611         1.233058
 H        -0.453609        -0.463192         0.992922
 H        -0.530332         0.844228        -0.153235
 H        -0.302732        -0.791006        -0.863426
 H         2.491242         2.097159        -0.461906
 H         1.720109         1.956662         1.075877
 H         4.126721         0.929715         1.590826
 H         5.094268        -0.716660         0.202664
 H         3.890337         0.645569        -1.789570
 H         3.908176        -1.199498        -2.000673
 H         2.008388        -0.876840         2.211862
