19
Iteration:  4569charge 0 multiplicity 1
 C         0.083659        -0.160170        -0.029946
 C         1.538658         0.069219         0.017523
 C         2.248464         1.311178         0.474893
 C         3.349566         0.411406         1.103742
 C         4.046808        -0.565683         0.022705
 C         3.419061        -0.336955        -1.346112
 O         1.983423        -0.397813        -1.338609
 O         3.331179        -1.640840         0.564663
 C         2.383709        -0.721763         1.096538
 H        -0.275959         0.007301        -1.087007
 H        -0.236439        -1.101925         0.350331
 H        -0.592829         0.599764         0.520406
 H         2.595991         2.119437        -0.145287
 H         1.735086         1.711681         1.322950
 H         3.838869         0.614006         2.017083
 H         5.131220        -0.638685        -0.062687
 H         3.706760         0.593332        -1.791345
 H         3.749578        -1.097112        -1.995976
 H         1.937280        -1.193936         1.984111
