19
Iteration:    14charge 0 multiplicity 1
 C         0.026136        -0.126276        -0.023659
 C         1.535118        -0.033040         0.003419
 C         2.049725         1.382909         0.410004
 C         3.289599         0.486487         1.082865
 C         4.102777        -0.551398         0.037370
 C         3.465380        -0.435920        -1.364434
 O         2.031346        -0.306823        -1.306174
 O         3.458254        -1.731733         0.680455
 C         2.415156        -0.742458         1.035723
 H        -0.445081         0.165705         1.043770
 H        -0.219322         0.740658        -0.777998
 H        -0.413315        -0.991614        -0.397088
 H         2.349377         2.247943        -0.480771
 H         1.573175         1.829076         1.248335
 H         3.747544         0.746581         1.963163
 H         5.127689        -0.596357         0.019704
 H         3.937675         0.378767        -1.999977
 H         3.580296        -1.538577        -1.815291
 H         1.790501        -1.048992         1.839272
