19
Iteration:  4109
 C        -0.004778        -0.026108         0.005813
 C         1.546686        -0.032834        -0.099387
 C         2.184912         1.284637         0.471810
 C         3.358942         0.467916         1.040021
 C         4.130816        -0.516179         0.041758
 C         3.451831        -0.281159        -1.294143
 O         1.958303        -0.402339        -1.389304
 O         3.410378        -1.725753         0.696112
 C         2.343463        -0.809733         1.058638
 H        -0.449691         0.289005        -0.982062
 H        -0.351701        -1.038827         0.311289
 H        -0.362520         0.584808         0.740431
 H         2.554713         2.218925        -0.162271
 H         1.621906         1.749803         1.337503
 H         3.956990         0.658285         2.007073
 H         5.256992        -0.628068        -0.082009
 H         3.774078         0.697630        -1.781600
 H         3.745440        -1.057037        -1.949154
 H         1.676679        -1.386047         1.759886
