19
Iteration:  2137
 C        -0.045987        -0.108713        -0.129276
 C         1.480511         0.034588         0.016961
 C         2.299827         1.320223         0.464948
 C         3.434637         0.448821         1.086251
 C         4.023322        -0.529871         0.020082
 C         3.492891        -0.343018        -1.349572
 O         1.971268        -0.390704        -1.338624
 O         3.339010        -1.718391         0.660138
 C         2.386101        -0.736942         1.116973
 H        -0.631046         0.499738         0.607358
 H        -0.472620         0.217687        -1.108902
 H        -0.233414        -1.135862         0.171312
 H         2.597199         2.094953        -0.301723
 H         1.650773         1.684867         1.295724
 H         4.010658         0.795633         1.942218
 H         5.132755        -0.638879         0.016146
 H         3.768013         0.659189        -1.690141
 H         3.833002        -1.170427        -2.038724
 H         1.986457        -1.202633         2.050261
