19
Iteration:  3431charge 0 multiplicity 1
 C         0.100214        -0.217449         0.048970
 C         1.570000        -0.036398        -0.068399
 C         2.252951         1.358929         0.426641
 C         3.344789         0.444246         1.058483
 C         3.983271        -0.618389         0.030298
 C         3.498097        -0.287448        -1.450243
 O         2.081636        -0.294285        -1.376775
 O         3.259490        -1.717253         0.687596
 C         2.277459        -0.702689         1.148150
 H        -0.228715         0.213253         0.944320
 H        -0.433913         0.210385        -0.747707
 H        -0.146452        -1.371545         0.083134
 H         2.475909         2.210667        -0.315238
 H         1.698462         1.844132         1.280374
 H         4.034672         0.777665         1.887534
 H         5.137868        -0.746751         0.128478
 H         3.685580         0.721362        -1.697288
 H         3.918670        -1.100936        -2.041737
 H         1.540554        -0.783209         1.978276
