19
Iteration:  2478charge 0 multiplicity 1
 C        -0.012783        -0.046400        -0.068680
 C         1.575487        -0.019078        -0.013306
 C         2.215146         1.320728         0.328279
 C         3.345445         0.398378         1.116048
 C         4.060456        -0.535727         0.056530
 C         3.447768        -0.304868        -1.317182
 O         2.031499        -0.416596        -1.272506
 O         3.315690        -1.699427         0.591502
 C         2.388485        -0.763917         1.156803
 H        -0.517217         0.520520         0.817333
 H        -0.393697         0.266979        -0.998996
 H        -0.352620        -1.141034         0.025453
 H         2.610841         2.022092        -0.384758
 H         1.636868         2.042969         0.899149
 H         3.906935         0.835577         1.895092
 H         5.186449        -0.708839         0.088360
 H         3.949955         0.639509        -1.675303
 H         3.846788        -1.052393        -2.082406
 H         1.792854        -1.082507         2.016751
