19
Iteration:  1310charge 0 multiplicity 1
 C         0.030141        -0.026389        -0.117177
 C         1.532130        -0.046629        -0.083317
 C         2.213481         1.289151         0.472605
 C         3.326567         0.482366         1.016509
 C         4.024246        -0.520707         0.124911
 C         3.408106        -0.455020        -1.343945
 O         1.985975        -0.342437        -1.317250
 O         3.450564        -1.664294         0.704697
 C         2.380769        -0.792791         1.101959
 H        -0.359218         0.277935         0.880685
 H        -0.352847         0.637672        -0.791676
 H        -0.367263        -0.969218        -0.430965
 H         2.498033         1.939304        -0.418963
 H         1.753658         1.833021         1.255076
 H         3.893731         0.951238         1.854398
 H         5.075332        -0.424850         0.082954
 H         3.945527         0.328193        -2.056439
 H         3.559922        -1.402194        -1.826970
 H         1.847985        -1.143445         2.002132
