19
Iteration:   282charge 0 multiplicity 1
 C        -0.009379        -0.067422        -0.164473
 C         1.509427        -0.062780        -0.021517
 C         2.209620         1.302733         0.551008
 C         3.333250         0.516917         1.072572
 C         4.038552        -0.528172         0.007046
 C         3.457249        -0.422128        -1.375508
 O         1.984591        -0.350764        -1.352717
 O         3.411178        -1.671449         0.644979
 C         2.442603        -0.786846         1.215066
 H        -0.472942         0.554369         0.562868
 H        -0.244480         0.315584        -1.153311
 H        -0.470228        -1.068634         0.117015
 H         2.428343         2.175332        -0.093853
 H         1.578568         1.774788         1.307204
 H         3.910258         0.977125         1.852018
 H         5.134442        -0.547771         0.028334
 H         3.832543         0.383705        -1.969145
 H         3.738960        -1.327763        -1.970805
 H         1.921510        -1.229316         2.038483
