19
Iteration:  3786
 C        -0.052182         0.034913         0.006576
 C         1.499995        -0.012172        -0.064855
 C         2.180900         1.323765         0.393241
 C         3.321575         0.475151         1.043676
 C         4.082282        -0.551565         0.100966
 C         3.446699        -0.293861        -1.358505
 O         2.033037        -0.547538        -1.299252
 O         3.411512        -1.707269         0.624919
 C         2.432680        -0.781007         1.116553
 H        -0.238329         1.047390         0.342563
 H        -0.498284        -0.039389        -0.985273
 H        -0.611047        -0.730672         0.701440
 H         2.563333         2.053528        -0.411386
 H         1.597343         2.100470         1.066741
 H         3.947247         0.715401         1.869885
 H         5.170358        -0.601739         0.147262
 H         3.747045         0.661373        -1.668772
 H         3.973295        -1.028085        -2.032040
 H         1.758355        -1.373492         1.712716
