19
Iteration:  4329charge 0 multiplicity 1
 C         0.141366        -0.203319         0.040616
 C         1.563093        -0.011658         0.000707
 C         2.236458         1.351467         0.538160
 C         3.253811         0.425818         1.169127
 C         3.988959        -0.461196        -0.045381
 C         3.472796        -0.407028        -1.424177
 O         2.053478        -0.258806        -1.401294
 O         3.284565        -1.700329         0.568933
 C         2.342650        -0.752235         1.128692
 H        -0.310122        -0.249212        -0.971629
 H         0.041509        -1.200727         0.401874
 H        -0.299789         0.624082         0.691705
 H         2.585133         2.064194        -0.279384
 H         1.704132         1.874699         1.332304
 H         3.958286         0.655475         1.918209
 H         5.026198        -0.740661        -0.009655
 H         3.882638         0.488265        -1.991813
 H         3.756860        -1.346293        -1.816254
 H         1.716183        -1.039096         1.949374
