19
Iteration:  3850
 C        -0.051091        -0.175507        -0.019814
 C         1.486889         0.038792        -0.018629
 C         2.227083         1.282091         0.477245
 C         3.395629         0.418606         0.929681
 C         4.061105        -0.604586         0.040350
 C         3.594362        -0.399113        -1.304205
 O         2.018323        -0.249344        -1.311922
 O         3.319271        -1.655411         0.628434
 C         2.369291        -0.726825         1.127500
 H        -0.593655         0.703601        -0.445275
 H        -0.312501        -1.056137        -0.642706
 H        -0.492867        -0.382275         0.890101
 H         2.374025         2.051834        -0.289924
 H         1.801545         1.848117         1.340305
 H         4.036001         0.750888         1.718929
 H         5.138947        -0.608002         0.210433
 H         3.758644         0.600768        -1.847993
 H         3.509289        -1.280508        -2.024145
 H         1.846185        -1.069139         2.044562
