19
Iteration:  3425charge 0 multiplicity 1
 C         0.062764        -0.260794         0.017526
 C         1.588477         0.021498        -0.076614
 C         2.249048         1.362269         0.446505
 C         3.310593         0.464733         1.117340
 C         4.031416        -0.686508         0.040903
 C         3.526356        -0.277817        -1.452932
 O         2.025696        -0.303847        -1.409655
 O         3.238022        -1.720170         0.696708
 C         2.363296        -0.663960         1.130872
 H        -0.285268         0.271882         0.990576
 H        -0.556655         0.180188        -0.860530
 H        -0.091072        -1.307932         0.259766
 H         2.547736         2.090422        -0.249450
 H         1.716555         1.795414         1.274674
 H         3.874392         0.872884         1.930627
 H         5.067800        -0.762773         0.119603
 H         3.891621         0.790920        -1.788658
 H         3.716864        -1.098726        -2.185884
 H         1.776180        -0.881033         2.032802
