19
Iteration:  3979charge 0 multiplicity 1
 C        -0.037392        -0.121614         0.015224
 C         1.529982         0.065527        -0.010890
 C         2.235130         1.404785         0.471586
 C         3.272896         0.460746         1.149710
 C         4.067239        -0.533336         0.030653
 C         3.544835        -0.437023        -1.354706
 O         1.983330        -0.375911        -1.320071
 O         3.395972        -1.654975         0.556425
 C         2.379933        -0.811011         1.074688
 H        -0.584516         0.709933        -0.597670
 H        -0.264688        -1.053972        -0.656522
 H        -0.571938        -0.226695         0.937541
 H         2.683299         2.111058        -0.246812
 H         1.508726         1.875957         1.105783
 H         4.149294         0.716878         1.935908
 H         5.215398        -0.735913        -0.025909
 H         3.867540         0.383125        -1.895368
 H         3.677425        -1.307249        -1.999325
 H         1.803140        -1.230922         1.951487
