19
Iteration:  4634charge 0 multiplicity 1
 C         0.047782        -0.225451        -0.003676
 C         1.512549         0.093576        -0.029944
 C         2.280877         1.368746         0.486403
 C         3.350534         0.405166         1.025548
 C         4.014215        -0.524932        -0.008281
 C         3.438765        -0.318045        -1.369315
 O         2.031146        -0.318046        -1.402331
 O         3.297848        -1.755114         0.720816
 C         2.397053        -0.776193         1.127071
 H        -0.480367         0.728860        -0.224912
 H        -0.283412        -0.922683        -0.690630
 H        -0.344444        -0.372721         1.017644
 H         2.470583         2.104925        -0.296820
 H         1.661788         1.905897         1.188823
 H         3.967943         0.789995         1.787456
 H         5.112381        -0.562890        -0.050666
 H         3.923272         0.601902        -1.773704
 H         3.839010        -1.171261        -1.990105
 H         1.829783        -1.126751         2.007386
