19
Iteration:  2677charge 0 multiplicity 1
 C         0.092920        -0.241281         0.007138
 C         1.566506         0.028703        -0.102667
 C         2.264335         1.374071         0.423485
 C         3.356553         0.438849         1.112175
 C         3.937972        -0.524716         0.069734
 C         3.460492        -0.337215        -1.349575
 O         2.032030        -0.265075        -1.384561
 O         3.237491        -1.760476         0.619566
 C         2.393284        -0.721743         1.168407
 H        -0.324491         0.256195         0.916440
 H        -0.348202         0.305030        -0.952886
 H        -0.146129        -1.367052        -0.073997
 H         2.617752         2.071727        -0.414004
 H         1.651371         1.781411         1.230500
 H         4.202119         0.648497         1.773325
 H         5.077595        -0.809231         0.069704
 H         3.981752         0.557607        -1.574307
 H         3.799382        -1.240068        -1.954870
 H         1.768536        -0.910684         2.077441
