19
Iteration:  1876
 C         0.043385         0.020154        -0.014960
 C         1.527791        -0.061019        -0.077548
 C         2.194674         1.298112         0.356001
 C         3.287183         0.500525         1.126146
 C         3.991448        -0.509234         0.055868
 C         3.542336        -0.333659        -1.319662
 O         2.006006        -0.538636        -1.359082
 O         3.381737        -1.643573         0.624975
 C         2.378494        -0.773358         1.145040
 H        -0.386203         0.100588         1.115236
 H        -0.295834         1.016613        -0.461101
 H        -0.477561        -0.838669        -0.511383
 H         2.572998         1.881716        -0.491488
 H         1.527117         1.864661         0.999849
 H         3.910376         0.726706         1.979549
 H         5.139159        -0.632057         0.241952
 H         3.945096         0.676284        -1.564938
 H         3.927350        -1.235004        -1.956884
 H         1.812659        -1.268474         1.945157
