19
Iteration:  3078
 C         0.009236        -0.085799        -0.009695
 C         1.576357        -0.052590        -0.037846
 C         2.190999         1.314374         0.314411
 C         3.272518         0.480209         1.148079
 C         4.087937        -0.593924         0.080944
 C         3.468185        -0.296973        -1.357708
 O         2.019089        -0.405301        -1.311424
 O         3.344266        -1.665971         0.610312
 C         2.378348        -0.773185         1.130624
 H        -0.326414         0.108010         1.076687
 H        -0.188427         0.761377        -0.573618
 H        -0.444791        -0.944617        -0.626067
 H         2.618543         1.956163        -0.477129
 H         1.611022         1.913055         1.063859
 H         3.932505         0.794225         1.907397
 H         5.191108        -0.759343         0.156170
 H         3.831415         0.711261        -1.666886
 H         3.733206        -1.050181        -2.051141
 H         1.886400        -1.178159         1.987673
