19
Iteration:  3201charge 0 multiplicity 1
 C         0.052377        -0.017350         0.009906
 C         1.535903        -0.073004        -0.040614
 C         2.242526         1.267318         0.364129
 C         3.312056         0.420791         1.177941
 C         4.031911        -0.453056         0.092696
 C         3.475823        -0.335882        -1.342398
 O         2.024931        -0.511176        -1.309974
 O         3.349196        -1.599749         0.557135
 C         2.315528        -0.775470         1.065583
 H        -0.061575         0.776871         0.699470
 H        -0.202737         0.180886        -1.085423
 H        -0.386952        -1.070074         0.314407
 H         2.567184         2.066255        -0.345514
 H         1.658870         1.762328         1.155784
 H         3.823558         0.982385         2.010444
 H         5.104160        -0.656023         0.103338
 H         3.755334         0.644137        -1.669770
 H         3.913755        -0.946779        -2.095279
 H         1.709994        -1.290114         1.834252
