19
Iteration:  2484charge 0 multiplicity 1
 C         0.069005        -0.082441        -0.082143
 C         1.514683         0.001863        -0.002124
 C         2.235505         1.287326         0.332384
 C         3.332713         0.417095         1.069484
 C         4.051500        -0.521016         0.050898
 C         3.447426        -0.296795        -1.289002
 O         2.028225        -0.386318        -1.283126
 O         3.316377        -1.737035         0.605839
 C         2.369584        -0.743876         1.177615
 H        -0.504334         0.474575         0.626753
 H        -0.352966         0.392141        -1.040502
 H        -0.228900        -1.072459         0.158819
 H         2.694056         1.870816        -0.521133
 H         1.713543         1.848269         1.173455
 H         3.999595         0.859629         1.912857
 H         5.113513        -0.545904         0.020322
 H         3.822703         0.614628        -1.793066
 H         3.738305        -1.064421        -1.983796
 H         1.707801        -1.073436         2.004448
