19
Iteration:  4026
 C        -0.033510        -0.201160        -0.038342
 C         1.531664         0.040843        -0.025042
 C         2.234123         1.356959         0.507756
 C         3.404351         0.536959         1.054757
 C         4.000127        -0.651878         0.075931
 C         3.472644        -0.311437        -1.452968
 O         2.087401        -0.345273        -1.375703
 O         3.306499        -1.736843         0.683178
 C         2.402192        -0.712087         1.129137
 H        -0.681535         0.680293        -0.047956
 H        -0.359832        -0.838419        -0.826604
 H        -0.294507        -0.755700         0.975457
 H         2.298458         1.932480        -0.344095
 H         1.829052         1.886645         1.355459
 H         3.949836         0.876162         1.856640
 H         5.056721        -0.713745         0.042328
 H         3.779334         0.635060        -1.671807
 H         3.732849        -0.954131        -2.349563
 H         1.715560        -1.052230         1.880255
