19
Iteration:   902
 C         0.023551        -0.182409        -0.210410
 C         1.502834         0.012228         0.091392
 C         2.220290         1.311998         0.412120
 C         3.369952         0.525412         1.021343
 C         4.005782        -0.573091         0.008537
 C         3.535772        -0.422390        -1.413474
 O         1.979526        -0.351201        -1.244972
 O         3.322949        -1.630651         0.635003
 C         2.392095        -0.709628         1.281648
 H        -0.596826         0.110897         0.611371
 H        -0.138105         0.316129        -1.188815
 H        -0.123742        -1.266742        -0.249799
 H         2.397684         2.071857        -0.289462
 H         1.742794         1.772384         1.211361
 H         3.948405         0.876078         1.822605
 H         5.088022        -0.686724         0.092032
 H         3.992303         0.431930        -1.959924
 H         3.734922        -1.377209        -1.980442
 H         1.970738        -0.998829         2.206584
