19
Iteration:    12charge 0 multiplicity 1
 C         0.027951        -0.125699        -0.028426
 C         1.552307        -0.037482         0.010855
 C         2.072071         1.379587         0.390698
 C         3.284270         0.464654         1.084198
 C         4.081724        -0.550614         0.044715
 C         3.455147        -0.406442        -1.367383
 O         2.036995        -0.334829        -1.297278
 O         3.433558        -1.716905         0.667722
 C         2.420699        -0.721243         1.040412
 H        -0.449994         0.143459         0.936870
 H        -0.248904         0.690077        -0.727996
 H        -0.414177        -1.059490        -0.347790
 H         2.362183         2.160771        -0.362547
 H         1.639344         1.852270         1.250006
 H         3.804660         0.802675         1.972709
 H         5.179517        -0.595414         0.022372
 H         3.922097         0.344072        -1.962948
 H         3.619420        -1.398009        -1.851674
 H         1.794249        -1.065644         1.849097
