19
Iteration:  1586charge 0 multiplicity 1
 C         0.031868        -0.037202        -0.111349
 C         1.534591        -0.036237         0.039189
 C         2.249485         1.348595         0.341342
 C         3.315971         0.468914         1.038644
 C         4.062874        -0.515060         0.053493
 C         3.498427        -0.286423        -1.320551
 O         2.068558        -0.541831        -1.180289
 O         3.340136        -1.683167         0.577000
 C         2.286639        -0.763781         1.110708
 H        -0.368007         0.093284         0.971437
 H        -0.424456         0.673891        -0.860317
 H        -0.382234        -1.040266        -0.243767
 H         2.587663         1.974051        -0.415617
 H         1.713217         1.929815         1.105179
 H         3.731472         0.985120         1.901786
 H         5.104978        -0.722097         0.105062
 H         3.736302         0.818435        -1.832948
 H         3.774599        -1.024734        -2.071396
 H         1.695739        -1.160221         1.982885
