19
Iteration:  4498charge 0 multiplicity 1
 C        -0.001063        -0.121979        -0.037254
 C         1.489692         0.007677        -0.042905
 C         2.328646         1.395545         0.530189
 C         3.290286         0.375344         1.070049
 C         4.045171        -0.487188        -0.025667
 C         3.412519        -0.322994        -1.353058
 O         2.072642        -0.461743        -1.234431
 O         3.325112        -1.670711         0.529150
 C         2.414476        -0.757885         1.146280
 H        -0.320798         0.350896        -0.965220
 H        -0.179521        -1.244413        -0.211567
 H        -0.610919         0.367357         0.657519
 H         2.506842         2.343403        -0.087043
 H         1.620217         1.794759         1.375857
 H         3.970762         0.724389         1.941446
 H         5.141079        -0.687673        -0.086226
 H         3.703087         0.606033        -1.900514
 H         3.758663        -1.158052        -2.091170
 H         1.755063        -0.962559         2.005728
