19
Iteration:  1702charge 0 multiplicity 1
 C        -0.046033        -0.069703        -0.116579
 C         1.526437         0.022365        -0.054425
 C         2.212874         1.380905         0.406857
 C         3.347158         0.472519         1.039675
 C         4.049391        -0.549515         0.086411
 C         3.482616        -0.340933        -1.413850
 O         2.065886        -0.536852        -1.258510
 O         3.346133        -1.682058         0.677589
 C         2.371082        -0.739194         1.152628
 H        -0.402649        -0.112193         0.980589
 H        -0.483830         0.776989        -0.521144
 H        -0.524869        -0.939356        -0.576840
 H         2.662987         2.181945        -0.334934
 H         1.611399         1.881556         1.162847
 H         4.089872         0.750813         1.783623
 H         5.156049        -0.647325         0.311201
 H         3.905861         0.718526        -1.698773
 H         3.808251        -1.189211        -2.182241
 H         1.726351        -0.962959         1.967765
