19
Iteration:  3499charge 0 multiplicity 1
 C         0.087020         0.090436        -0.144486
 C         1.577815        -0.003853        -0.049827
 C         2.153057         1.285331         0.449220
 C         3.297798         0.473686         1.055905
 C         4.038607        -0.484119         0.046695
 C         3.372721        -0.344377        -1.402073
 O         1.969479        -0.531530        -1.297824
 O         3.469238        -1.720807         0.653708
 C         2.412231        -0.818178         1.236403
 H        -0.387461        -0.161650         0.813305
 H        -0.244263         1.150726        -0.426760
 H        -0.231293        -0.562847        -0.908272
 H         2.372789         2.121554        -0.222032
 H         1.473755         1.634933         1.257989
 H         3.901704         0.877032         1.863835
 H         5.116864        -0.598692         0.029904
 H         3.561613         0.681785        -1.651880
 H         3.637335        -1.136333        -2.058818
 H         1.975526        -1.285032         2.112162
