19
Iteration:  2197charge 0 multiplicity 1
 C        -0.016811        -0.043322        -0.006359
 C         1.520783        -0.057903        -0.011928
 C         2.256122         1.295626         0.420727
 C         3.307559         0.477155         1.060810
 C         4.077437        -0.508339         0.045027
 C         3.506580        -0.374880        -1.350619
 O         2.065490        -0.465812        -1.300306
 O         3.287206        -1.675267         0.558279
 C         2.320116        -0.721742         1.112571
 H        -0.146358         0.147288         1.028973
 H        -0.359652         0.758582        -0.663405
 H        -0.518788        -0.996793        -0.271020
 H         2.487154         2.190793        -0.197495
 H         1.742088         1.881307         1.209594
 H         3.787327         0.702235         2.068266
 H         5.186529        -0.554209         0.050775
 H         3.980921         0.504256        -1.872384
 H         3.993920        -1.099676        -2.035928
 H         2.001179        -1.001477         2.112091
