19
Iteration:   451charge 0 multiplicity 1
 C        -0.022008        -0.173573        -0.049201
 C         1.506165        -0.018606        -0.025999
 C         2.255609         1.352005         0.413560
 C         3.400267         0.476172         1.078200
 C         4.007293        -0.578881         0.082898
 C         3.501343        -0.239420        -1.396511
 O         2.086170        -0.409693        -1.282224
 O         3.320149        -1.681480         0.609567
 C         2.317026        -0.748847         1.145163
 H        -0.343123         0.403456         0.818077
 H        -0.501714         0.256570        -0.938715
 H        -0.317331        -1.203501        -0.167894
 H         2.473603         1.828558        -0.533988
 H         1.775943         1.849014         1.349481
 H         3.928337         0.817517         2.024059
 H         5.121747        -0.811389        -0.099585
 H         3.784671         0.863987        -1.794412
 H         3.761920        -1.034485        -2.026851
 H         1.691648        -1.256451         1.961740
