19
Iteration:   496
 C         0.013314        -0.123933         0.085683
 C         1.545356         0.028367        -0.087839
 C         2.219333         1.331245         0.425735
 C         3.243949         0.413924         1.160350
 C         4.104305        -0.506694         0.081518
 C         3.504964        -0.365979        -1.446835
 O         2.071741        -0.388500        -1.399724
 O         3.325294        -1.618770         0.619542
 C         2.327789        -0.788139         1.066191
 H        -0.167084         0.154153         1.101710
 H        -0.662003         0.462724        -0.546011
 H        -0.320474        -1.143694        -0.168810
 H         2.778557         1.849187        -0.384637
 H         1.488335         1.821303         1.154983
 H         3.822332         0.847044         2.089989
 H         5.174716        -0.770230         0.399945
 H         4.025807         0.679487        -1.877642
 H         3.732950        -1.288049        -1.864162
 H         1.729615        -1.276494         1.956090
