19
Iteration:  1138
 C        -0.008366        -0.023367        -0.183921
 C         1.480822         0.022183         0.002646
 C         2.232506         1.301676         0.427747
 C         3.365013         0.508504         1.018210
 C         4.051837        -0.540912         0.113493
 C         3.487637        -0.330088        -1.307367
 O         1.969397        -0.481127        -1.229606
 O         3.420915        -1.729731         0.618507
 C         2.377857        -0.776176         1.105363
 H        -0.543774         0.102624         0.724988
 H        -0.320464         0.651815        -1.100707
 H        -0.376676        -1.047639        -0.378966
 H         2.378923         1.939762        -0.396918
 H         1.811757         1.934895         1.209174
 H         3.895309         0.929192         1.809957
 H         5.122318        -0.396732         0.174625
 H         3.678807         0.679002        -1.637141
 H         3.776205        -1.156488        -1.994960
 H         1.949870        -1.131217         2.061957
