19
Iteration:   756charge 0 multiplicity 1
 C         0.030871        -0.252309        -0.009927
 C         1.546436         0.004600        -0.027979
 C         2.208877         1.445239         0.359333
 C         3.309990         0.444664         1.000068
 C         4.040425        -0.578548         0.075420
 C         3.484514        -0.393721        -1.325611
 O         2.099303        -0.372605        -1.228431
 O         3.288984        -1.699192         0.599353
 C         2.329031        -0.670454         1.120230
 H        -0.369265         0.367585         0.820281
 H        -0.421080         0.383288        -0.848480
 H        -0.187687        -1.335083        -0.265988
 H         2.608051         2.010984        -0.422902
 H         1.630471         1.995594         1.152213
 H         3.970403         0.741993         1.891625
 H         5.193120        -0.541819         0.327061
 H         3.918589         0.660376        -1.797768
 H         3.748012        -1.066097        -2.228474
 H         1.756635        -0.984395         1.946756
