19
Iteration:    36
 C        -0.026336        -0.071524        -0.076792
 C         1.501118         0.005710        -0.070319
 C         2.152810         1.224675         0.513993
 C         3.286357         0.440368         1.003616
 C         3.995403        -0.461418         0.033441
 C         3.465811        -0.558706        -1.374820
 O         2.063070        -0.221385        -1.408710
 O         3.478273        -1.608515         0.718854
 C         2.415832        -0.815140         1.191077
 H        -0.320381        -0.052484         1.070824
 H        -0.689787         0.696476        -0.628675
 H        -0.315134        -1.024112        -0.386340
 H         2.427256         2.125275        -0.240107
 H         1.687344         1.598265         1.397416
 H         3.972651         0.898466         1.615513
 H         5.023017        -0.370377         0.085638
 H         4.015220         0.183694        -2.006203
 H         3.616091        -1.662571        -1.762607
 H         1.897883        -1.193618         2.052091
