19
Iteration:  4006
 C         0.111513        -0.213339         0.029401
 C         1.570587        -0.004555        -0.022434
 C         2.210612         1.300667         0.379562
 C         3.295548         0.405280         1.050815
 C         4.032901        -0.501500         0.010615
 C         3.530346        -0.365749        -1.325185
 O         2.022019        -0.236690        -1.362371
 O         3.254920        -1.684089         0.622434
 C         2.354516        -0.747266         1.167054
 H        -0.357649         0.732166        -0.059291
 H        -0.252690        -0.799979        -0.756992
 H        -0.324350        -0.662475         1.033707
 H         2.449255         2.043775        -0.432909
 H         1.635211         1.711782         1.262667
 H         3.933524         0.727203         1.759284
 H         5.096525        -0.697147         0.000975
 H         4.010064         0.532309        -1.901532
 H         3.668408        -1.357972        -1.870428
 H         1.898961        -0.893768         2.127264
