19
Iteration:  4280charge 0 multiplicity 1
 C         0.030832        -0.173469        -0.052919
 C         1.490056         0.035886         0.037381
 C         2.214901         1.336519         0.450243
 C         3.408711         0.416735         1.014058
 C         4.019730        -0.560250        -0.010594
 C         3.465487        -0.251315        -1.445414
 O         2.066627        -0.377005        -1.292145
 O         3.279918        -1.725674         0.680121
 C         2.390967        -0.737302         1.166667
 H        -0.358313         0.574131        -0.750570
 H        -0.135550        -1.153189        -0.591055
 H        -0.406164         0.001603         0.908308
 H         2.476623         2.065264        -0.263171
 H         1.551952         1.747897         1.204217
 H         4.112113         0.563062         1.886151
 H         5.121011        -0.708822         0.134506
 H         3.766390         0.813147        -1.680049
 H         3.663865        -0.983403        -2.298070
 H         1.877349        -0.999391         2.136026
