19
Iteration:  2629
 C         0.023519        -0.026461        -0.142607
 C         1.482553        -0.040528         0.048404
 C         2.203265         1.313075         0.483358
 C         3.344859         0.544703         1.050520
 C         4.040598        -0.523468         0.040297
 C         3.463648        -0.407947        -1.347906
 O         2.035608        -0.392026        -1.305173
 O         3.327104        -1.715024         0.557728
 C         2.410250        -0.777636         1.169084
 H        -0.496271         0.392102         0.814641
 H        -0.267363         0.598539        -0.940965
 H        -0.342242        -1.106149        -0.228858
 H         2.487622         1.978190        -0.308486
 H         1.760366         1.756930         1.410554
 H         4.043334         0.849806         1.849126
 H         5.101044        -0.654150         0.103287
 H         3.906005         0.515575        -1.767536
 H         3.886467        -1.300658        -1.827349
 H         1.953219        -1.218472         2.042609
