19
Iteration:  2140
 C        -0.062779        -0.102107        -0.140393
 C         1.483454         0.029608        -0.013265
 C         2.290333         1.307840         0.489789
 C         3.460581         0.442730         1.087431
 C         4.018039        -0.529392         0.015902
 C         3.488704        -0.327649        -1.361180
 O         1.963237        -0.395561        -1.325122
 O         3.355988        -1.711559         0.673467
 C         2.385061        -0.736689         1.114745
 H        -0.622678         0.542402         0.592970
 H        -0.407122         0.134955        -1.070251
 H        -0.316200        -1.146734         0.077720
 H         2.594296         2.092074        -0.298596
 H         1.672414         1.790886         1.253011
 H         4.064437         0.650678         1.904705
 H         5.159780        -0.604034         0.006996
 H         3.751021         0.665979        -1.628672
 H         3.744725        -1.227417        -1.926446
 H         1.953344        -1.116958         2.003452
