19
Iteration:  2119charge 0 multiplicity 1
 C         0.115028        -0.138832         0.033409
 C         1.575737         0.016190        -0.038605
 C         2.188011         1.360005         0.404876
 C         3.290086         0.450316         1.036706
 C         4.020247        -0.590169         0.055307
 C         3.500255        -0.325201        -1.391585
 O         2.089995        -0.372914        -1.282712
 O         3.240747        -1.699165         0.540930
 C         2.352060        -0.760125         1.193141
 H        -0.340254         0.465756         0.858190
 H        -0.250571         0.243443        -0.861162
 H        -0.215477        -1.181653         0.024670
 H         2.478744         2.068923        -0.452081
 H         1.712295         1.963175         1.150998
 H         3.924071         0.813029         1.816477
 H         5.137208        -0.710484         0.212689
 H         3.816003         0.707191        -1.647013
 H         3.657577        -1.237383        -1.964389
 H         1.753383        -1.046586         2.012883
