19
Iteration:   278charge 0 multiplicity 1
 C        -0.019847        -0.075377        -0.130641
 C         1.503244        -0.076749        -0.031175
 C         2.199329         1.324179         0.542216
 C         3.339676         0.512480         1.061418
 C         4.042478        -0.530988         0.039925
 C         3.469299        -0.417436        -1.355146
 O         1.975373        -0.360348        -1.397650
 O         3.423076        -1.670787         0.628337
 C         2.435359        -0.790043         1.218760
 H        -0.491538         0.617353         0.619388
 H        -0.235282         0.373567        -1.123984
 H        -0.537003        -1.049328         0.079868
 H         2.461614         2.231053        -0.076884
 H         1.641670         1.774833         1.343344
 H         4.044364         0.971492         1.893124
 H         5.134286        -0.489865         0.103029
 H         3.847034         0.438983        -2.008101
 H         3.778754        -1.410970        -1.948280
 H         1.810932        -1.233752         2.085855
