19
Iteration:   411
 C         0.043540        -0.047401        -0.215715
 C         1.552013         0.025680         0.020684
 C         2.120979         1.375492         0.499529
 C         3.353314         0.517266         1.125804
 C         3.998141        -0.543685        -0.038423
 C         3.418647        -0.374885        -1.376110
 O         2.006725        -0.447935        -1.236838
 O         3.437542        -1.727040         0.602090
 C         2.427546        -0.804930         1.213306
 H        -0.435243         0.187402         0.737258
 H        -0.264268         0.741059        -0.947378
 H        -0.261845        -1.070244        -0.705912
 H         2.243333         2.182733        -0.352126
 H         1.497581         1.694454         1.342758
 H         4.129843         0.959604         1.939537
 H         5.078941        -0.608586        -0.081714
 H         3.799164         0.515949        -1.853553
 H         3.747873        -1.286007        -2.031680
 H         1.851836        -1.210503         2.169801
