19
Iteration:  2828
 C         0.100105        -0.252693        -0.003615
 C         1.526414         0.069326        -0.037111
 C         2.287838         1.317568         0.371852
 C         3.395506         0.425103         1.059866
 C         3.999699        -0.646730         0.125079
 C         3.418448        -0.266309        -1.353351
 O         2.063456        -0.297824        -1.354786
 O         3.232260        -1.689503         0.630198
 C         2.313896        -0.707856         1.108105
 H        -0.425781         0.099871         0.986332
 H        -0.365105         0.119550        -0.900477
 H        -0.043114        -1.425061        -0.101940
 H         2.559643         2.180979        -0.289378
 H         1.892512         1.853799         1.251821
 H         3.920137         0.924611         1.885791
 H         5.044215        -0.881840         0.031434
 H         3.849658         0.754549        -1.607976
 H         3.985874        -0.897672        -2.093941
 H         1.805169        -1.109558         1.983893
