19
Iteration:  4991charge 0 multiplicity 1
 C        -0.010126         0.090689        -0.034319
 C         1.492281        -0.087671        -0.040977
 C         2.219969         1.219317         0.360378
 C         3.280961         0.378821         1.120063
 C         4.123188        -0.433998         0.063912
 C         3.499215        -0.311704        -1.349315
 O         1.967394        -0.448381        -1.279009
 O         3.443370        -1.674449         0.613234
 C         2.367309        -0.842745         1.085262
 H        -0.268056         1.154238        -0.419712
 H        -0.481346        -0.824165        -0.463835
 H        -0.481394         0.095245         0.933351
 H         2.391325         1.961391        -0.398089
 H         1.676827         1.703464         1.168795
 H         3.936527         0.767074         1.866034
 H         5.210431        -0.312438         0.027698
 H         3.520036         0.686196        -1.843806
 H         3.822723        -1.158265        -1.889458
 H         1.893447        -1.188003         2.015350
