19
Iteration:  3002charge 0 multiplicity 1
 C         0.033676        -0.160948        -0.113502
 C         1.561571        -0.065971        -0.017266
 C         2.244398         1.291424         0.422786
 C         3.309871         0.514445         1.012212
 C         3.961195        -0.549046         0.000836
 C         3.504194        -0.356230        -1.398730
 O         2.040057        -0.227150        -1.285652
 O         3.318720        -1.709411         0.647507
 C         2.369971        -0.790110         1.231464
 H        -0.367739         0.556770         0.721489
 H        -0.408634         0.122895        -1.027647
 H        -0.175513        -1.247446         0.265637
 H         2.625443         2.103312        -0.173179
 H         1.762441         1.710817         1.316803
 H         3.890262         0.792465         1.858225
 H         4.974042        -0.828449         0.006962
 H         3.946285         0.634406        -1.872644
 H         3.803298        -1.277027        -1.853078
 H         1.851905        -1.100820         2.116004
