19
Iteration:  1447charge 0 multiplicity 1
 C        -0.050610        -0.039525        -0.110239
 C         1.467524         0.013786        -0.006404
 C         2.193487         1.296100         0.461932
 C         3.377755         0.392968         1.000252
 C         4.054454        -0.533173         0.062468
 C         3.479954        -0.334347        -1.322525
 O         2.055774        -0.463810        -1.255789
 O         3.369303        -1.682964         0.623041
 C         2.382579        -0.705702         1.114279
 H        -0.450720         0.609582         0.550838
 H        -0.269744         0.312530        -1.148876
 H        -0.435730        -1.028347         0.024279
 H         2.510771         1.864342        -0.422405
 H         1.745453         1.937585         1.306340
 H         3.802149         0.800651         1.937969
 H         5.182526        -0.650366         0.011426
 H         3.961084         0.612778        -1.890279
 H         3.865387        -1.262460        -1.930267
 H         1.888336        -0.853753         2.095510
