19
Iteration:  2933
 C         0.044534        -0.046110        -0.044653
 C         1.516243        -0.111114         0.012780
 C         2.246894         1.349343         0.371692
 C         3.315136         0.448313         1.123790
 C         4.027104        -0.528654         0.043193
 C         3.463345        -0.246581        -1.368110
 O         2.041621        -0.456323        -1.275214
 O         3.323584        -1.736307         0.612602
 C         2.389506        -0.743710         1.090978
 H        -0.543796        -0.041633         0.895767
 H        -0.373978         0.861099        -0.691346
 H        -0.192768        -0.867120        -0.728504
 H         2.344819         1.892081        -0.571789
 H         1.693274         1.813377         1.232908
 H         3.909442         0.882009         1.949051
 H         5.180889        -0.620353         0.049717
 H         3.870893         0.863379        -1.647619
 H         3.772624        -1.144819        -1.918225
 H         1.925237        -0.941515         2.082229
