19
Iteration:  1942charge 0 multiplicity 1
 C         0.047128        -0.191695        -0.055770
 C         1.543303         0.050652        -0.078105
 C         2.211739         1.367796         0.467754
 C         3.389558         0.501314         1.034547
 C         3.968218        -0.551926         0.062755
 C         3.527168        -0.347039        -1.385827
 O         2.060789        -0.376474        -1.284948
 O         3.225242        -1.746309         0.615834
 C         2.392974        -0.696529         1.178619
 H        -0.389063         0.184478         0.986931
 H        -0.492959         0.269490        -0.889720
 H        -0.127196        -1.283811        -0.140874
 H         2.353167         2.192889        -0.285543
 H         1.692051         1.735749         1.352331
 H         4.059303         0.833660         1.803345
 H         5.126118        -0.596675        -0.000034
 H         3.963690         0.395714        -2.037599
 H         3.905466        -1.236746        -2.006197
 H         1.831384        -1.039058         2.040661
