19
Iteration:  1496
 C         0.026701        -0.190845         0.003223
 C         1.569450         0.003216         0.001576
 C         2.293305         1.359050         0.366934
 C         3.332578         0.418031         1.108029
 C         4.059803        -0.466851         0.043430
 C         3.557244        -0.404137        -1.427169
 O         2.049916        -0.385995        -1.324298
 O         3.197986        -1.687832         0.647362
 C         2.292419        -0.669537         1.134949
 H        -0.274332         0.068889         1.152051
 H        -0.540264         0.389621        -0.712347
 H        -0.084038        -1.313822        -0.164215
 H         2.610725         1.945927        -0.504930
 H         1.649191         1.859572         1.011081
 H         3.995536         0.646732         1.931828
 H         5.113633        -0.528476         0.189427
 H         3.834542         0.639651        -1.902770
 H         4.012637        -1.094732        -2.059912
 H         1.596945        -0.938040         1.923844
