19
Iteration:  4720
 C         0.088362        -0.134859        -0.061528
 C         1.565531         0.024125         0.063950
 C         2.271456         1.273770         0.497012
 C         3.377175         0.383304         1.009936
 C         3.965984        -0.518746         0.033521
 C         3.439172        -0.263039        -1.364151
 O         1.969044        -0.336838        -1.373246
 O         3.342916        -1.761146         0.627410
 C         2.357886        -0.709827         1.165125
 H        -0.105782         0.312152        -1.063845
 H        -0.198489        -1.146946        -0.189817
 H        -0.466558         0.347878         0.658988
 H         2.393507         2.002984        -0.327330
 H         1.615839         1.642505         1.329897
 H         4.018508         0.672218         1.792136
 H         5.033066        -0.475608         0.181759
 H         3.803867         0.725631        -1.716354
 H         3.789225        -1.079965        -2.099896
 H         1.800242        -1.011176         2.046952
