19
Iteration:  1701
 C        -0.045367        -0.071892        -0.121690
 C         1.531346         0.032056        -0.040450
 C         2.206369         1.385989         0.407813
 C         3.343173         0.465800         1.044177
 C         4.055584        -0.553189         0.083468
 C         3.480914        -0.344131        -1.424552
 O         2.064885        -0.535261        -1.259099
 O         3.349540        -1.691548         0.674997
 C         2.368458        -0.727396         1.154135
 H        -0.378996        -0.124989         0.939337
 H        -0.471043         0.785754        -0.538021
 H        -0.526774        -0.957918        -0.566570
 H         2.609901         2.163172        -0.314047
 H         1.617888         1.897701         1.159025
 H         4.095898         0.763226         1.789833
 H         5.162457        -0.633739         0.333946
 H         3.898015         0.714829        -1.708351
 H         3.813989        -1.206343        -2.168019
 H         1.726214        -0.946125         1.989442
