19
Iteration:  2319
 C         0.008281        -0.027516        -0.023042
 C         1.504686         0.000523        -0.060187
 C         2.258601         1.382506         0.386826
 C         3.281011         0.414622         1.047391
 C         4.033468        -0.530297         0.051024
 C         3.421871        -0.276438        -1.341337
 O         2.031963        -0.462343        -1.297965
 O         3.443658        -1.788724         0.624115
 C         2.318064        -0.782336         1.180090
 H        -0.355429         0.579194         0.698494
 H        -0.307353         0.396499        -1.038513
 H        -0.326298        -1.027311         0.160293
 H         2.774421         1.930850        -0.518608
 H         1.700759         2.162051         1.027492
 H         3.883620         0.820121         1.972691
 H         5.082762        -0.520938         0.130613
 H         3.925800         0.655708        -1.753323
 H         3.724004        -0.976641        -2.101996
 H         1.838218        -1.105351         2.121219
