19
Iteration:   459
 C         0.031788        -0.157931        -0.001633
 C         1.519715         0.024344        -0.023397
 C         2.244256         1.336217         0.379413
 C         3.291913         0.439112         1.086420
 C         4.068941        -0.572972         0.092473
 C         3.485114        -0.250375        -1.346740
 O         2.064931        -0.389337        -1.340910
 O         3.295255        -1.705741         0.602933
 C         2.357456        -0.772640         1.115248
 H        -0.400001         0.282014         0.964113
 H        -0.507507         0.281882        -0.859341
 H        -0.131351        -1.232462         0.111298
 H         2.573254         1.971245        -0.416725
 H         1.644435         2.026906         1.007146
 H         3.851853         0.765737         1.901796
 H         5.141642        -0.738255         0.262353
 H         3.769631         0.765482        -1.815493
 H         3.896436        -1.000480        -2.139579
 H         1.870563        -1.071614         1.973623
