19
Iteration:  3288charge 0 multiplicity 1
 C         0.023369        -0.210985        -0.018846
 C         1.535041         0.046809        -0.000391
 C         2.209307         1.372320         0.438310
 C         3.376083         0.451672         1.058726
 C         4.022682        -0.572914         0.057598
 C         3.521849        -0.401700        -1.424067
 O         2.065466        -0.368361        -1.253788
 O         3.312091        -1.651625         0.620870
 C         2.290149        -0.664841         1.066085
 H        -0.374206        -0.533234         0.904188
 H        -0.644310         0.593568        -0.324911
 H        -0.216051        -1.039026        -0.824534
 H         2.526181         1.981190        -0.471242
 H         1.745684         2.016871         1.229310
 H         3.939133         0.740116         2.008065
 H         5.138088        -0.821122        -0.008302
 H         3.886837         0.592381        -1.899613
 H         3.867122        -1.361784        -1.806508
 H         1.811467        -1.007878         1.997085
