19
Iteration:   415charge 0 multiplicity 1
 C         0.076951        -0.047927        -0.235056
 C         1.543183         0.051355        -0.008299
 C         2.107536         1.360216         0.515186
 C         3.365817         0.513681         1.096646
 C         4.008202        -0.553689        -0.000023
 C         3.409152        -0.353762        -1.390748
 O         1.982862        -0.467529        -1.233754
 O         3.420606        -1.742836         0.589467
 C         2.445788        -0.774877         1.250221
 H        -0.529287         0.091065         0.708654
 H        -0.188058         0.683812        -1.002618
 H        -0.172115        -1.048682        -0.526478
 H         2.127247         2.115260        -0.176402
 H         1.650973         1.874597         1.352646
 H         3.837664         0.853912         1.926587
 H         5.077065        -0.696134        -0.028921
 H         3.885028         0.617510        -1.914913
 H         3.753129        -1.236414        -2.060759
 H         2.087364        -1.152858         2.104300
