19
Iteration:  1073
 C        -0.028376        -0.212062         0.011369
 C         1.486522         0.071535        -0.057653
 C         2.231534         1.372867         0.413302
 C         3.283285         0.496306         1.084443
 C         4.043391        -0.572952         0.064412
 C         3.551739        -0.466098        -1.406500
 O         2.101260        -0.276237        -1.303502
 O         3.387726        -1.702338         0.660993
 C         2.292078        -0.704043         1.069213
 H        -0.334417         0.133125         0.965577
 H        -0.621564         0.301531        -0.826463
 H        -0.185345        -1.299582        -0.041586
 H         2.531904         1.845450        -0.444010
 H         1.726207         2.011479         1.151578
 H         3.771723         0.793039         1.951795
 H         5.147667        -0.725244         0.148836
 H         3.960069         0.476923        -1.921319
 H         3.667904        -1.450424        -1.867648
 H         1.656748        -1.167780         1.825050
