19
Iteration:  2683
 C         0.128841        -0.226092         0.000608
 C         1.547003         0.016090        -0.056036
 C         2.252668         1.322011         0.359713
 C         3.371467         0.442293         1.115734
 C         4.001309        -0.518565         0.021993
 C         3.487172        -0.337395        -1.332509
 O         2.048520        -0.268761        -1.346736
 O         3.212348        -1.775347         0.600280
 C         2.323308        -0.687372         1.178541
 H        -0.248076         0.190729         0.973128
 H        -0.407306         0.186446        -0.805259
 H        -0.229584        -1.221040        -0.147074
 H         2.575180         2.147637        -0.227100
 H         1.665142         1.801418         1.180120
 H         4.123039         0.637061         1.905664
 H         5.013380        -0.694401         0.061937
 H         3.879943         0.677538        -1.784220
 H         3.816461        -1.161598        -1.941898
 H         1.755716        -0.907915         2.072169
