19
Iteration:  4925
 C         0.043970        -0.288787        -0.053229
 C         1.566550         0.042193         0.001933
 C         2.306744         1.464756         0.516544
 C         3.368126         0.444967         1.090767
 C         3.987085        -0.587043         0.023873
 C         3.503912        -0.352899        -1.354930
 O         1.998982        -0.344796        -1.312574
 O         3.217317        -1.718479         0.498163
 C         2.395412        -0.665210         1.150962
 H        -0.388699         0.072832        -1.054531
 H        -0.009285        -1.366719         0.191140
 H        -0.421329         0.096640         0.810442
 H         2.561791         2.145305        -0.253736
 H         1.667142         1.879636         1.276493
 H         4.072001         0.790407         1.805660
 H         5.035948        -0.756575         0.215810
 H         4.084273         0.644338        -1.565701
 H         3.590036        -1.106559        -2.059654
 H         1.744163        -0.999323         1.953110
