19
Iteration:  2528
 C         0.018986        -0.176143        -0.082842
 C         1.546501         0.114915        -0.066122
 C         2.184447         1.359184         0.532491
 C         3.355593         0.509598         1.078433
 C         4.087369        -0.644119         0.000888
 C         3.492191        -0.472410        -1.388063
 O         2.047773        -0.319120        -1.294183
 O         3.294348        -1.697535         0.608177
 C         2.354872        -0.707511         1.114034
 H        -0.490980         0.048001         0.883230
 H        -0.626181         0.443411        -0.906064
 H        -0.099772        -1.246675        -0.119002
 H         2.281833         2.226723        -0.198566
 H         1.612830         1.832574         1.432830
 H         3.842051         1.011394         2.024339
 H         5.119420        -0.876915         0.103254
 H         4.066115         0.307414        -1.936430
 H         3.799666        -1.328672        -1.939545
 H         2.004830        -0.869980         2.166272
