19
Iteration:  3011
 C         0.052841        -0.127921        -0.093876
 C         1.523494         0.024094        -0.030247
 C         2.239218         1.302408         0.452783
 C         3.382655         0.421636         1.000220
 C         3.980562        -0.509954         0.038619
 C         3.439789        -0.331121        -1.317653
 O         2.034974        -0.320595        -1.293307
 O         3.325852        -1.725290         0.639641
 C         2.412282        -0.776984         1.172855
 H        -0.440714         0.671841         0.598286
 H        -0.289402        -0.023063        -1.119524
 H        -0.489744        -1.097046         0.003539
 H         2.343702         2.149197        -0.260545
 H         1.465535         1.526354         1.265076
 H         4.023612         0.870904         1.772232
 H         5.139563        -0.539534         0.105793
 H         3.966857         0.574018        -1.917023
 H         3.756528        -1.228494        -1.903362
 H         1.845621        -1.115071         2.048762
