19
Iteration:  1159charge 0 multiplicity 1
 C         0.019415        -0.004481        -0.178325
 C         1.524631        -0.058746        -0.015164
 C         2.158590         1.287605         0.448628
 C         3.311342         0.450717         1.104201
 C         4.048384        -0.457335        -0.022754
 C         3.439926        -0.476135        -1.375947
 O         2.016050        -0.366562        -1.302682
 O         3.419735        -1.637372         0.709222
 C         2.442978        -0.786345         1.209085
 H        -0.578170         0.128267         0.730066
 H        -0.025804         0.898513        -0.900606
 H        -0.477546        -0.859874        -0.679346
 H         2.294403         2.119314        -0.248510
 H         1.537030         1.697852         1.245700
 H         3.899365         0.693915         1.964029
 H         5.116739        -0.543257        -0.118857
 H         3.781562         0.280920        -2.014576
 H         3.722139        -1.474745        -1.770170
 H         1.881720        -1.259110         2.061116
