19
Iteration:  3511
 C         0.004158         0.018018        -0.124604
 C         1.514785        -0.096446        -0.020089
 C         2.169590         1.327385         0.441551
 C         3.350385         0.469204         1.138568
 C         4.034824        -0.577542        -0.015407
 C         3.437518        -0.325036        -1.377951
 O         1.995128        -0.481162        -1.315622
 O         3.420045        -1.708562         0.688409
 C         2.453381        -0.748438         1.154061
 H        -0.506143        -0.063830         0.879704
 H        -0.048118         1.143466        -0.421101
 H        -0.525375        -0.576194        -0.723639
 H         2.236604         2.076905        -0.339939
 H         1.478878         1.658009         1.241707
 H         4.015070         0.809726         1.921007
 H         5.077807        -0.430570        -0.028261
 H         3.753299         0.589255        -1.880904
 H         3.914762        -0.907429        -2.179450
 H         1.850944        -1.001406         2.020842
