19
Iteration:  3368charge 0 multiplicity 1
 C        -0.043212        -0.014618        -0.123181
 C         1.574529        -0.000627         0.049382
 C         2.155562         1.317657         0.465807
 C         3.368472         0.428248         1.133966
 C         4.031453        -0.540541         0.026315
 C         3.430159        -0.387126        -1.340128
 O         2.039518        -0.458696        -1.319718
 O         3.372826        -1.667493         0.572833
 C         2.430254        -0.740092         1.188761
 H        -0.588420         0.611726         0.639503
 H        -0.383003         0.276347        -1.242031
 H        -0.348503        -1.030352        -0.119851
 H         2.322742         2.026418        -0.343664
 H         1.588821         1.866769         1.203798
 H         4.160465         0.895096         1.774013
 H         5.065796        -0.486175        -0.069915
 H         3.879399         0.589283        -1.849807
 H         3.819823        -1.108564        -2.055782
 H         1.983148        -1.300585         2.012984
