19
Iteration:  3076charge 0 multiplicity 1
 C         0.019840        -0.083749        -0.019059
 C         1.579483        -0.048395        -0.024392
 C         2.206875         1.300033         0.329314
 C         3.270004         0.481734         1.142539
 C         4.080499        -0.593022         0.082075
 C         3.478019        -0.273711        -1.346447
 O         1.997880        -0.423036        -1.321822
 O         3.339974        -1.666057         0.601868
 C         2.379718        -0.769247         1.119935
 H        -0.323150         0.145152         1.048457
 H        -0.132969         0.812263        -0.595395
 H        -0.377260        -0.943996        -0.550448
 H         2.577758         1.916516        -0.537356
 H         1.551299         1.911276         1.062622
 H         3.893560         0.862731         1.974949
 H         5.244917        -0.736954         0.145555
 H         3.814787         0.660316        -1.633952
 H         3.721155        -1.101819        -2.020274
 H         1.911548        -1.187352         2.021257
