19
Iteration:  2690charge 0 multiplicity 1
 C         0.103176        -0.191494        -0.002578
 C         1.577303         0.012186         0.016042
 C         2.254977         1.290079         0.383746
 C         3.365909         0.421748         1.059294
 C         4.054427        -0.554545         0.023095
 C         3.514016        -0.298428        -1.354917
 O         2.076496        -0.310540        -1.304460
 O         3.184493        -1.731754         0.588736
 C         2.285757        -0.682299         1.142624
 H        -0.266263         0.052218         0.950658
 H        -0.623596         0.439065        -0.789688
 H        -0.085247        -1.284953        -0.051501
 H         2.487373         2.149526        -0.324604
 H         1.681169         1.834863         1.124434
 H         3.757289         0.822323         2.031725
 H         5.206512        -0.611551         0.079325
 H         3.759953         0.552277        -1.970852
 H         3.801821        -1.110549        -2.040383
 H         1.701061        -1.052584         2.037670
