19
Iteration:  3350charge 0 multiplicity 1
 C        -0.001836         0.020516        -0.104691
 C         1.511598        -0.025215        -0.100842
 C         2.220422         1.298587         0.468867
 C         3.340431         0.466962         0.999115
 C         4.045021        -0.464581         0.054954
 C         3.458601        -0.302658        -1.335700
 O         1.989503        -0.521566        -1.278899
 O         3.420600        -1.725181         0.671217
 C         2.386584        -0.806736         1.121348
 H        -0.339964         0.414198         0.926562
 H        -0.203260         0.777848        -0.881025
 H        -0.443620        -0.987288        -0.160237
 H         2.489254         2.197621        -0.094284
 H         1.637447         1.574518         1.369446
 H         3.795750         0.788370         1.883555
 H         5.162876        -0.629424         0.015652
 H         3.484893         0.660741        -1.749211
 H         3.889440        -1.000289        -2.097669
 H         1.900917        -1.019937         2.076301
