19
Iteration:   219charge 0 multiplicity 1
 C         0.017284        -0.172311        -0.001576
 C         1.536692        -0.026817        -0.010994
 C         2.304200         1.266989         0.363993
 C         3.376669         0.482731         1.052557
 C         4.009452        -0.460047         0.060853
 C         3.464035        -0.240786        -1.290701
 O         2.058738        -0.477280        -1.345340
 O         3.224706        -1.725673         0.594729
 C         2.374781        -0.661481         1.136539
 H        -0.324946        -0.387238         1.023831
 H        -0.593841         0.627688        -0.441505
 H        -0.060511        -1.093035        -0.538385
 H         2.665054         1.882566        -0.419254
 H         1.654714         1.927809         1.133527
 H         3.876345         0.713475         1.911078
 H         5.124762        -0.592402        -0.000962
 H         3.815093         0.788810        -1.733183
 H         3.937319        -0.915136        -1.854791
 H         1.832970        -0.888073         2.003483
