19
Iteration:  2981
 C         0.034343        -0.250180         0.025311
 C         1.511294         0.114881         0.020471
 C         2.212159         1.396814         0.460270
 C         3.386109         0.448913         1.061436
 C         4.064866        -0.580737         0.031687
 C         3.506156        -0.384473        -1.384962
 O         2.037176        -0.287494        -1.363474
 O         3.284177        -1.723400         0.633895
 C         2.348511        -0.715220         1.069871
 H        -0.581940         0.254203         0.887645
 H        -0.330736         0.182767        -0.875040
 H        -0.148568        -1.417300        -0.208799
 H         2.521844         1.976351        -0.413961
 H         1.508564         1.857336         1.110714
 H         3.934712         0.499932         2.006235
 H         5.060343        -0.713840         0.201515
 H         4.020822         0.571882        -1.670295
 H         3.914922        -1.300180        -1.801878
 H         1.659729        -1.009211         1.830651
