19
Iteration:  3566charge 0 multiplicity 1
 C         0.146049        -0.320752         0.040220
 C         1.526505         0.063985        -0.003774
 C         2.331832         1.361074         0.463747
 C         3.355185         0.444022         1.132370
 C         4.018984        -0.551198         0.036349
 C         3.503064        -0.356951        -1.400874
 O         2.059117        -0.331166        -1.421776
 O         3.171369        -1.654723         0.602967
 C         2.290591        -0.683524         1.123474
 H        -0.339740         0.349836         0.849222
 H        -0.314153        -0.036577        -0.993848
 H         0.053270        -1.312671         0.287245
 H         2.595578         1.840431        -0.482536
 H         1.707878         1.971077         1.180474
 H         3.915248         0.848942         1.992413
 H         5.114041        -0.594842         0.154281
 H         3.698866         0.727485        -1.796868
 H         3.578199        -1.354615        -1.979048
 H         1.696753        -1.060084         1.991696
