19
Iteration:   731
 C         0.035922        -0.126789         0.146883
 C         1.556106        -0.023804        -0.121924
 C         2.277707         1.307924         0.335006
 C         3.264736         0.490666         1.117455
 C         3.975864        -0.498040         0.152671
 C         3.517232        -0.268122        -1.352888
 O         2.065086        -0.462557        -1.448485
 O         3.317329        -1.677063         0.649683
 C         2.333682        -0.758707         1.080819
 H        -0.254480         0.285777         1.137632
 H        -0.448307         0.580967        -0.510318
 H        -0.249588        -1.105043        -0.207490
 H         2.782712         1.966726        -0.480865
 H         1.551302         1.830533         1.004107
 H         3.746139         0.859073         2.046173
 H         5.099003        -0.661528         0.207067
 H         4.012077         0.472770        -2.050861
 H         3.812737        -1.161064        -1.767485
 H         1.756526        -1.232728         1.906564
