19
Iteration:  3071
 C         0.070978        -0.051615        -0.035327
 C         1.556280        -0.041303         0.005069
 C         2.246595         1.278175         0.380362
 C         3.285883         0.481281         1.118465
 C         4.063456        -0.559733         0.079271
 C         3.494698        -0.264380        -1.309826
 O         1.964436        -0.463777        -1.340039
 O         3.332663        -1.681744         0.585093
 C         2.380488        -0.762902         1.109533
 H        -0.352943         0.154234         0.906384
 H        -0.139606         0.884838        -0.673789
 H        -0.288046        -1.055949        -0.374929
 H         2.425147         1.802663        -0.556269
 H         1.534802         1.838602         0.928217
 H         3.719815         0.964807         2.040076
 H         5.112275        -0.638923         0.088212
 H         3.830853         0.793854        -1.710763
 H         3.776975        -1.120024        -1.961830
 H         1.909063        -1.175335         2.027878
