19
Iteration:  4314charge 0 multiplicity 1
 C         0.031425        -0.261038         0.040046
 C         1.558743         0.112482        -0.053570
 C         2.243944         1.365802         0.412243
 C         3.387710         0.427615         1.089501
 C         4.012061        -0.524206         0.098464
 C         3.476934        -0.383638        -1.355995
 O         2.022045        -0.189493        -1.337142
 O         3.265136        -1.744855         0.547337
 C         2.405730        -0.799804         1.130872
 H        -0.483838        -0.047931        -0.952803
 H        -0.057587        -1.355569         0.447294
 H        -0.597430         0.211942         0.730359
 H         2.512312         2.059157        -0.325435
 H         1.523034         1.826965         1.079400
 H         3.931379         0.772017         2.043879
 H         5.150989        -0.444325         0.141321
 H         4.040943         0.330680        -2.051062
 H         3.618603        -1.296740        -2.020049
 H         1.830856        -1.263676         2.006662
