19
Iteration:   394
 C        -0.007571        -0.031584        -0.085505
 C         1.515606        -0.080524        -0.012316
 C         2.226166         1.255512         0.495019
 C         3.291856         0.425726         1.024135
 C         4.058559        -0.431557         0.055082
 C         3.450877        -0.415889        -1.388858
 O         2.020653        -0.398827        -1.297250
 O         3.404092        -1.622851         0.666920
 C         2.391884        -0.773351         1.107760
 H        -0.601780        -0.033235         0.842058
 H        -0.199204         0.838812        -0.698317
 H        -0.368348        -0.895102        -0.546689
 H         2.522301         1.961094        -0.206581
 H         1.693139         1.888758         1.220891
 H         3.846928         0.727341         1.826577
 H         5.160024        -0.464657         0.131887
 H         3.837039         0.490972        -1.960971
 H         3.748596        -1.265501        -1.959386
 H         1.901143        -1.202240         1.899662
