19
Iteration:  4413charge 0 multiplicity 1
 C         0.042246        -0.061494        -0.029735
 C         1.522609         0.027414        -0.115434
 C         2.269720         1.352098         0.517472
 C         3.318435         0.401837         1.112043
 C         4.000456        -0.463499         0.071573
 C         3.444245        -0.369894        -1.334968
 O         1.975650        -0.498722        -1.300890
 O         3.397192        -1.667760         0.528727
 C         2.423614        -0.738416         1.082860
 H        -0.507178         0.906469        -0.316137
 H        -0.521910        -0.880481        -0.613769
 H        -0.169393        -0.368761         0.944815
 H         2.411928         2.157209        -0.223947
 H         1.702249         1.803058         1.364119
 H         3.991341         0.575384         1.987343
 H         5.118352        -0.529104         0.176938
 H         3.584773         0.581093        -1.832750
 H         3.809639        -1.261787        -1.970593
 H         1.824406        -1.018103         1.991672
