19
Iteration:  4798
 C         0.010253        -0.079138        -0.051081
 C         1.553465        -0.036585         0.005310
 C         2.211499         1.317761         0.496490
 C         3.353703         0.364524         1.045807
 C         4.042964        -0.557240        -0.013495
 C         3.463843        -0.260874        -1.397988
 O         2.004976        -0.393545        -1.310314
 O         3.371111        -1.727730         0.678795
 C         2.335894        -0.699579         1.095958
 H        -0.295839         0.725943        -0.727994
 H        -0.159427        -0.993526        -0.536794
 H        -0.403382         0.163001         0.929891
 H         2.521267         2.117359        -0.248310
 H         1.802566         1.928943         1.356347
 H         3.731781         0.712811         2.049049
 H         5.135545        -0.729961        -0.102583
 H         3.663647         0.745573        -1.737834
 H         3.950900        -0.986995        -2.160356
 H         1.837930        -1.253961         1.917169
