19
Iteration:  3371
 C        -0.040686        -0.033132        -0.132503
 C         1.574712        -0.007490         0.059973
 C         2.147148         1.328036         0.463255
 C         3.371176         0.430296         1.135645
 C         4.045710        -0.518003         0.010081
 C         3.454682        -0.402179        -1.363726
 O         2.045512        -0.425788        -1.302636
 O         3.344945        -1.660313         0.576378
 C         2.423384        -0.761896         1.192491
 H        -0.651579         0.608839         0.637165
 H        -0.266837         0.282205        -1.240070
 H        -0.322106        -1.082650         0.025502
 H         2.427343         1.935445        -0.366832
 H         1.584562         1.902711         1.183336
 H         4.071251         0.843669         1.811911
 H         5.117634        -0.569819        -0.118069
 H         3.722494         0.511845        -1.855833
 H         3.825005        -1.149894        -2.088693
 H         1.995419        -1.253781         2.058871
