19
Iteration:   357charge 0 multiplicity 1
 C         0.094255        -0.152360         0.127559
 C         1.569696        -0.019664        -0.065590
 C         2.236782         1.356247         0.361644
 C         3.215404         0.520713         1.033769
 C         3.976963        -0.538215         0.065242
 C         3.519285        -0.321268        -1.328540
 O         2.084595        -0.407850        -1.355999
 O         3.302528        -1.687478         0.646155
 C         2.342305        -0.830266         1.042072
 H        -0.092760        -0.044171         1.192797
 H        -0.422496         0.676563        -0.409322
 H        -0.300665        -1.157126        -0.393518
 H         2.667414         2.016939        -0.493888
 H         1.806699         2.008592         1.075173
 H         3.797541         0.887833         1.992349
 H         5.024914        -0.532340         0.262558
 H         3.784258         0.768981        -1.623154
 H         3.913250        -1.124269        -2.177076
 H         1.633395        -1.082341         1.898729
