19
Iteration:  1124
 C        -0.021185        -0.105385        -0.104278
 C         1.515090         0.008355        -0.019671
 C         2.253716         1.378620         0.350393
 C         3.299296         0.385994         1.048142
 C         4.058180        -0.505875         0.020404
 C         3.474749        -0.241755        -1.338548
 O         2.104843        -0.521545        -1.237935
 O         3.296588        -1.690393         0.634429
 C         2.378822        -0.749801         1.184687
 H        -0.477243         0.445228         0.837492
 H        -0.420760         0.510950        -0.894227
 H        -0.267665        -1.142624        -0.324288
 H         2.668230         2.102491        -0.489029
 H         1.648111         1.793509         1.132026
 H         3.969611         0.690771         1.957972
 H         5.087825        -0.744957         0.021212
 H         3.659432         0.784482        -1.542660
 H         3.859376        -0.952482        -2.074428
 H         1.810120        -1.064304         2.144994
