19
Iteration:  3584
 C        -0.011054        -0.250405        -0.025854
 C         1.580701         0.038737        -0.077475
 C         2.286070         1.372839         0.420879
 C         3.397259         0.469413         1.014859
 C         3.962309        -0.591273         0.037873
 C         3.516428        -0.307651        -1.379638
 O         2.046943        -0.310573        -1.303841
 O         3.240391        -1.692036         0.642644
 C         2.358187        -0.732433         1.171734
 H        -0.624470         0.269130         0.667505
 H        -0.512676        -0.234558        -1.005634
 H        -0.069544        -1.328202         0.388872
 H         2.686605         2.219298        -0.178054
 H         1.639391         1.677824         1.277067
 H         4.026899         0.673595         1.886666
 H         5.063697        -0.739976         0.036953
 H         3.945248         0.571383        -1.761446
 H         3.850411        -1.116701        -1.967511
 H         1.778815        -0.854692         2.087190
