19
Iteration:  4099
 C         0.022182         0.007857        -0.004461
 C         1.452888         0.027718        -0.066817
 C         2.216125         1.222992         0.459473
 C         3.330278         0.391635         1.089861
 C         4.049730        -0.519321         0.064729
 C         3.463021        -0.347906        -1.324975
 O         2.008703        -0.432081        -1.310521
 O         3.497371        -1.654310         0.621226
 C         2.314041        -0.799256         1.013169
 H        -0.408223         0.543697        -0.893095
 H        -0.449841        -0.975967         0.071047
 H        -0.180087         0.604530         0.807069
 H         2.329156         2.107028        -0.290593
 H         1.562620         1.533703         1.315256
 H         3.790143         1.004995         1.937669
 H         5.143044        -0.621383        -0.118837
 H         3.739184         0.729573        -1.725367
 H         3.889966        -1.107781        -1.956099
 H         1.775620        -1.166622         1.913094
