19
Iteration:  1408
 C         0.064240        -0.033404        -0.112070
 C         1.558388        -0.002382        -0.032077
 C         2.191513         1.313425         0.490252
 C         3.302946         0.475641         1.094520
 C         4.032686        -0.503581         0.088991
 C         3.393214        -0.484328        -1.330471
 O         1.978675        -0.387940        -1.408812
 O         3.425629        -1.671988         0.687259
 C         2.433595        -0.720175         1.075041
 H        -0.423296         0.322747         0.928285
 H        -0.362670         0.677508        -0.841008
 H        -0.280308        -1.065027        -0.426978
 H         2.420464         2.172555        -0.187904
 H         1.569335         1.684396         1.262318
 H         3.926440         0.664350         1.978966
 H         5.107909        -0.647759         0.093631
 H         3.739464         0.180378        -2.015317
 H         3.747232        -1.419460        -1.647738
 H         1.833393        -1.070501         1.913066
