19
Iteration:  4275
 C         0.058682        -0.129419        -0.090089
 C         1.535694         0.031311         0.026758
 C         2.207030         1.293009         0.447350
 C         3.378390         0.457083         1.056566
 C         4.024328        -0.567024        -0.006817
 C         3.424563        -0.235138        -1.439230
 O         2.046473        -0.412289        -1.299061
 O         3.299618        -1.744371         0.651636
 C         2.382991        -0.725330         1.199903
 H        -0.377627         0.674784        -0.713162
 H        -0.160990        -1.060729        -0.550250
 H        -0.409748        -0.162576         0.969578
 H         2.563014         2.190788        -0.218751
 H         1.528399         1.706219         1.253434
 H         4.180640         0.791172         1.695932
 H         5.041839        -0.844663         0.185454
 H         3.689293         0.766964        -1.743914
 H         3.775559        -0.940099        -2.176458
 H         1.953412        -1.032150         2.129043
