19
Iteration:  3192charge 0 multiplicity 1
 C         0.105621        -0.028661        -0.009476
 C         1.529382        -0.041963         0.005520
 C         2.255862         1.325631         0.357494
 C         3.244731         0.413602         1.141971
 C         4.024879        -0.474827         0.039272
 C         3.530584        -0.278192        -1.407378
 O         2.048890        -0.533233        -1.369955
 O         3.349030        -1.666395         0.627954
 C         2.298974        -0.814646         1.151360
 H        -0.286641         0.693012         0.705192
 H        -0.478504         0.411357        -1.024968
 H        -0.381390        -1.005481         0.341976
 H         2.419725         2.114892        -0.370076
 H         1.702614         1.715768         1.167869
 H         4.022910         0.844030         1.936530
 H         5.051925        -0.472534         0.159385
 H         3.581088         0.829854        -1.444620
 H         3.776738        -0.947404        -2.265170
 H         1.810530        -1.131133         2.121253
