19
Iteration:  3137charge 0 multiplicity 1
 C         0.076114        -0.195552        -0.122824
 C         1.529343         0.063149         0.046234
 C         2.202357         1.362968         0.474323
 C         3.293078         0.501352         1.095519
 C         3.966760        -0.527284        -0.032986
 C         3.503842        -0.429015        -1.411801
 O         2.088475        -0.347152        -1.272765
 O         3.286695        -1.696965         0.645369
 C         2.397183        -0.739693         1.167088
 H        -0.458000        -0.395908         0.787149
 H        -0.549893         0.696000        -0.569817
 H        -0.197614        -1.117313        -0.678921
 H         2.561358         2.037026        -0.300364
 H         1.789675         1.966569         1.240073
 H         4.173458         0.853226         1.736574
 H         4.999826        -0.646751         0.025870
 H         3.977456         0.338403        -2.165223
 H         3.644742        -1.414093        -1.954690
 H         1.893617        -0.958498         2.140778
