19
Iteration:   852charge 0 multiplicity 1
 C         0.085843        -0.033249         0.134187
 C         1.577267        -0.045681        -0.085769
 C         2.201731         1.303582         0.304057
 C         3.220661         0.500358         1.142474
 C         4.017936        -0.465342         0.087655
 C         3.504337        -0.321846        -1.353673
 O         2.109686        -0.537408        -1.408568
 O         3.299393        -1.680234         0.638649
 C         2.333798        -0.792657         1.109044
 H        -0.213161         0.055276         1.273650
 H        -0.262636         0.839446        -0.446850
 H        -0.381086        -0.941095        -0.339011
 H         2.567460         1.769425        -0.728728
 H         1.486589         2.132921         0.771405
 H         3.940621         0.864579         2.000829
 H         5.140535        -0.376754         0.332168
 H         3.752557         0.651923        -1.766072
 H         3.998511        -1.010558        -1.985241
 H         1.589961        -1.173798         1.952785
