19
Iteration:  3113
 C         0.086565        -0.191050        -0.025932
 C         1.510582         0.019772        -0.046959
 C         2.189644         1.359261         0.445157
 C         3.373309         0.461590         1.046138
 C         4.065294        -0.566883         0.112588
 C         3.494122        -0.444779        -1.341602
 O         1.989784        -0.326303        -1.384913
 O         3.308289        -1.652202         0.649080
 C         2.381653        -0.680782         1.100609
 H        -0.472012        -0.562386         0.829159
 H        -0.446414         0.706003        -0.345945
 H        -0.174308        -1.017425        -0.816659
 H         2.446732         2.261415        -0.098234
 H         1.733937         1.699437         1.364890
 H         3.955528         0.803503         1.898528
 H         5.094592        -0.798349         0.184795
 H         3.866830         0.415569        -1.982453
 H         3.695810        -1.325265        -1.912692
 H         1.778931        -0.926375         1.974195
