19
Iteration:  1053
 C        -0.013476        -0.152160        -0.099998
 C         1.491447        -0.051746        -0.005527
 C         2.210949         1.348890         0.455453
 C         3.326832         0.440145         1.013522
 C         4.062014        -0.498410         0.047561
 C         3.480285        -0.493160        -1.368699
 O         2.000184        -0.234016        -1.394062
 O         3.384582        -1.674253         0.726528
 C         2.391439        -0.739186         1.209358
 H        -0.513115         0.126996         0.725615
 H        -0.296640         0.595977        -0.908771
 H        -0.206176        -1.114774        -0.559346
 H         2.473835         2.005294        -0.329918
 H         1.578811         1.755721         1.319667
 H         4.003644         0.699793         1.751638
 H         5.217462        -0.425628         0.093666
 H         4.014195         0.311906        -1.980483
 H         3.646881        -1.529646        -1.745599
 H         1.992036        -1.059953         2.101712
