19
Iteration:  2605charge 0 multiplicity 1
 C         0.071084         0.039167        -0.086164
 C         1.553374        -0.047746        -0.029793
 C         2.196435         1.292670         0.430331
 C         3.312623         0.446795         1.081805
 C         4.024740        -0.527688         0.018213
 C         3.448871        -0.302804        -1.417415
 O         2.063662        -0.527080        -1.245134
 O         3.319098        -1.664873         0.611283
 C         2.384436        -0.753042         1.158297
 H        -0.414554         0.231613         0.870440
 H        -0.278058         0.958571        -0.672346
 H        -0.424672        -0.877932        -0.456115
 H         2.498661         1.939417        -0.378500
 H         1.532309         1.634803         1.235938
 H         3.981711         0.559507         2.007612
 H         5.065447        -0.549051         0.211007
 H         3.711254         0.746338        -1.824246
 H         3.895693        -1.099317        -1.963617
 H         1.873649        -1.166417         2.052018
