19
Iteration:  3186
 C         0.052901        -0.023126        -0.020587
 C         1.577364        -0.015304        -0.031817
 C         2.245063         1.326162         0.402012
 C         3.250503         0.439048         1.064409
 C         4.009988        -0.512644         0.030223
 C         3.499052        -0.230276        -1.402771
 O         2.065588        -0.533857        -1.366712
 O         3.343946        -1.716728         0.663521
 C         2.332853        -0.807674         1.203936
 H        -0.422838         0.613191         0.773658
 H        -0.388883         0.330734        -0.868641
 H        -0.371436        -0.976429         0.229369
 H         2.461927         2.054463        -0.403376
 H         1.557191         1.851660         1.143077
 H         3.885924         0.652367         1.868820
 H         5.152593        -0.436498         0.169078
 H         3.652689         0.856715        -1.697164
 H         3.946024        -0.848317        -2.212681
 H         1.827325        -1.133247         2.106680
