19
Iteration:   143charge 0 multiplicity 1
 C        -0.024673        -0.108399        -0.012032
 C         1.506149         0.068919        -0.046207
 C         2.179152         1.342813         0.513446
 C         3.247236         0.450067         1.089171
 C         4.052873        -0.456378         0.022892
 C         3.488259        -0.464681        -1.385358
 O         2.041376        -0.371118        -1.370321
 O         3.454049        -1.703581         0.672710
 C         2.387473        -0.800136         1.069059
 H        -0.426779         0.443321         0.828100
 H        -0.372394         0.378249        -0.916118
 H        -0.361944        -1.094655         0.033213
 H         2.501958         1.895070        -0.251918
 H         1.630326         1.965767         1.205093
 H         3.799146         0.808436         1.919080
 H         5.164471        -0.430478         0.029154
 H         3.868829         0.387304        -1.992405
 H         3.820668        -1.327669        -1.848651
 H         1.876886        -1.136918         1.948388
