19
Iteration:  2895charge 0 multiplicity 1
 C        -0.043802         0.021148        -0.108742
 C         1.530205         0.009136         0.004572
 C         2.226522         1.287044         0.511585
 C         3.282359         0.444317         1.096984
 C         4.054338        -0.454456         0.034722
 C         3.421539        -0.339422        -1.408227
 O         2.054995        -0.507305        -1.365447
 O         3.436474        -1.720578         0.648202
 C         2.412062        -0.788231         1.169057
 H        -0.372848         0.239910         0.924831
 H        -0.239799         0.857412        -0.743036
 H        -0.626275        -0.799376        -0.640248
 H         2.446572         2.104062        -0.236986
 H         1.563178         1.749234         1.227689
 H         3.724991         0.699364         2.059295
 H         5.158315        -0.469158         0.112922
 H         3.759403         0.503106        -2.019551
 H         3.773724        -1.207889        -2.036533
 H         1.819582        -1.112315         2.033550
