19
Iteration:  1347
 C         0.087328        -0.179898        -0.051360
 C         1.522466         0.012457        -0.022027
 C         2.307826         1.309867         0.377115
 C         3.357428         0.496643         1.011368
 C         4.013735        -0.564422         0.063247
 C         3.484063        -0.276951        -1.344505
 O         2.095665        -0.517102        -1.257908
 O         3.182437        -1.670670         0.593597
 C         2.325635        -0.637792         1.171999
 H        -0.142653        -0.464588         0.905970
 H        -0.402201         0.775888        -0.323465
 H        -0.253599        -0.997795        -0.662855
 H         2.525838         1.981975        -0.416496
 H         1.806873         1.929794         1.226307
 H         4.079181         0.960054         1.639387
 H         5.050297        -0.766380         0.371300
 H         3.747977         0.778817        -1.687123
 H         3.768945        -1.083511        -2.092322
 H         1.647994        -0.952630         2.002465
