19
Iteration:  1652charge 0 multiplicity 1
 C        -0.025162        -0.166932        -0.112842
 C         1.478316         0.027579        -0.045463
 C         2.240123         1.362666         0.464246
 C         3.352325         0.496225         1.059683
 C         4.064942        -0.534012         0.039296
 C         3.499727        -0.469183        -1.414917
 O         2.045702        -0.282191        -1.356752
 O         3.356827        -1.725614         0.705544
 C         2.353642        -0.714393         1.207987
 H        -0.628706         0.153248         0.740908
 H        -0.406525         0.238455        -1.114310
 H        -0.244105        -1.236661        -0.082020
 H         2.468634         2.043555        -0.285137
 H         1.801233         1.969171         1.270450
 H         3.868262         0.707038         2.007887
 H         5.113206        -0.721822        -0.079358
 H         4.019540         0.335702        -1.987091
 H         3.647937        -1.428589        -1.815297
 H         1.817635        -0.872968         2.192642
