19
Iteration:  3189charge 0 multiplicity 1
 C         0.084467        -0.019223        -0.019420
 C         1.558226        -0.025130        -0.010336
 C         2.253664         1.326735         0.380524
 C         3.241404         0.429211         1.100141
 C         4.017505        -0.496799         0.031002
 C         3.520612        -0.246692        -1.413590
 O         2.058384        -0.536104        -1.373505
 O         3.345803        -1.696061         0.649440
 C         2.312232        -0.816668         1.187302
 H        -0.388169         0.628433         0.715155
 H        -0.442113         0.379474        -0.902002
 H        -0.416744        -1.040696         0.322172
 H         2.427269         2.105188        -0.408219
 H         1.615587         1.792969         1.169521
 H         3.957390         0.721810         1.889921
 H         5.124164        -0.426501         0.173613
 H         3.595535         0.786098        -1.557638
 H         3.834068        -0.862507        -2.202069
 H         1.835477        -1.117087         2.117950
