19
Iteration:  1559
 C         0.019152        -0.018565        -0.212405
 C         1.528210        -0.019420        -0.021384
 C         2.198034         1.296013         0.496586
 C         3.403971         0.449406         1.087090
 C         3.971189        -0.516403         0.016534
 C         3.435203        -0.440439        -1.362622
 O         1.980885        -0.442580        -1.367062
 O         3.434648        -1.654544         0.694853
 C         2.397989        -0.721203         1.254835
 H        -0.445690        -0.176112         0.738042
 H        -0.390872         0.833903        -0.713854
 H        -0.401560        -0.934057        -0.654746
 H         2.523874         2.072044        -0.323206
 H         1.578591         1.813705         1.250864
 H         4.041038         0.877282         1.879008
 H         5.111392        -0.560365        -0.037777
 H         3.796304         0.559659        -1.656495
 H         3.741341        -1.207827        -2.135291
 H         1.817405        -1.000278         2.112848
