19
Iteration:  3887
 C         0.139995        -0.151799         0.022401
 C         1.596118         0.039265        -0.084566
 C         2.227900         1.400916         0.517398
 C         3.278282         0.404297         1.143264
 C         4.039699        -0.539105         0.056457
 C         3.411577        -0.387771        -1.411157
 O         1.996701        -0.311650        -1.359964
 O         3.321419        -1.702970         0.596371
 C         2.343150        -0.785183         1.077035
 H        -0.263087        -0.000609        -0.917622
 H         0.024586        -1.173397         0.173984
 H        -0.369460         0.515224         0.808005
 H         2.511213         2.001363        -0.405120
 H         1.472011         1.952943         1.179593
 H         3.942985         0.711914         1.944347
 H         5.115267        -0.647202         0.212386
 H         3.903817         0.436712        -1.863528
 H         3.701731        -1.243001        -1.976978
 H         1.890293        -1.004476         2.013742
