19
Iteration:   220
 C         0.027841        -0.175686         0.008212
 C         1.539362        -0.025477        -0.004581
 C         2.302184         1.283410         0.354043
 C         3.376991         0.482727         1.057543
 C         3.996164        -0.460832         0.063001
 C         3.470862        -0.240356        -1.294401
 O         2.058904        -0.480612        -1.353186
 O         3.224495        -1.727657         0.591088
 C         2.375686        -0.673482         1.136981
 H        -0.331125        -0.350382         1.061994
 H        -0.593429         0.617140        -0.452403
 H        -0.058001        -1.026523        -0.543772
 H         2.642796         1.835227        -0.429715
 H         1.654701         1.918673         1.085889
 H         3.860909         0.690751         1.948996
 H         5.105640        -0.539164         0.008368
 H         3.796609         0.822844        -1.713325
 H         3.960126        -0.942875        -1.836799
 H         1.818251        -0.900975         2.016254
