19
Iteration:   653charge 0 multiplicity 1
 C         0.046431        -0.162646        -0.198729
 C         1.549572         0.027591         0.031543
 C         2.241804         1.345752         0.464863
 C         3.386901         0.488382         1.067589
 C         3.994255        -0.519944         0.022971
 C         3.457417        -0.344389        -1.451216
 O         2.042484        -0.423641        -1.244520
 O         3.315970        -1.708788         0.611654
 C         2.343365        -0.716465         1.275567
 H        -0.563744         0.050598         0.657846
 H        -0.154668         0.378855        -1.081590
 H        -0.096058        -1.182050        -0.427129
 H         2.291472         2.244718        -0.233529
 H         1.682586         1.626607         1.323066
 H         4.069402         0.876986         1.764311
 H         5.040078        -0.646907         0.116316
 H         3.696797         0.714952        -1.917027
 H         3.681918        -1.144612        -1.996645
 H         1.843643        -1.140045         2.177973
