19
Iteration:  1149charge 0 multiplicity 1
 C        -0.016781        -0.011858        -0.183504
 C         1.510823        -0.040304         0.043513
 C         2.178033         1.291324         0.449124
 C         3.360158         0.503515         1.070683
 C         4.092066        -0.492627         0.091497
 C         3.394544        -0.422811        -1.317802
 O         1.987989        -0.415869        -1.298790
 O         3.466951        -1.685964         0.637502
 C         2.385149        -0.783063         1.143539
 H        -0.601267         0.339133         0.626037
 H        -0.232516         0.866818        -0.969971
 H        -0.225044        -0.961898        -0.708706
 H         2.396529         1.947222        -0.344336
 H         1.548400         1.755119         1.221132
 H         3.982087         0.999473         1.736891
 H         5.162271        -0.720002         0.097895
 H         3.816270         0.410925        -1.900621
 H         3.698934        -1.298926        -1.930425
 H         1.793522        -1.161359         2.000377
