19
Iteration:  3916charge 0 multiplicity 1
 C        -0.147450        -0.077963        -0.048200
 C         1.498392        -0.012871        -0.020578
 C         2.314971         1.308350         0.468176
 C         3.379330         0.391002         1.098095
 C         4.088483        -0.482498         0.050287
 C         3.478252        -0.238984        -1.371352
 O         2.059571        -0.465965        -1.231380
 O         3.304622        -1.691428         0.517877
 C         2.385778        -0.773224         1.115894
 H        -0.429492         0.028142        -1.121995
 H        -0.462698        -1.103213         0.259934
 H        -0.603880         0.722848         0.532142
 H         2.600351         1.885122        -0.379370
 H         1.691518         1.883846         1.161787
 H         4.078372         0.691006         1.822744
 H         5.170235        -0.597924         0.089374
 H         3.811651         0.836258        -1.729116
 H         3.860164        -1.111073        -2.028582
 H         1.946111        -1.006389         2.106533
