19
Iteration:  2983
 C         0.037537        -0.242611         0.026813
 C         1.507457         0.101380         0.028545
 C         2.204169         1.391680         0.471281
 C         3.372199         0.427813         1.078029
 C         4.063476        -0.586531         0.031153
 C         3.498448        -0.381238        -1.401747
 O         2.054256        -0.275829        -1.378822
 O         3.283345        -1.712341         0.640699
 C         2.356536        -0.715804         1.088578
 H        -0.517984         0.264665         0.802970
 H        -0.323629         0.123938        -0.956411
 H        -0.206147        -1.341839        -0.187837
 H         2.459330         1.900374        -0.488157
 H         1.536764         1.924860         1.112714
 H         3.993761         0.607273         1.992732
 H         5.123510        -0.655356         0.205014
 H         3.983470         0.475309        -1.673412
 H         3.856808        -1.305156        -1.963226
 H         1.677317        -1.032090         1.898453
