19
Iteration:  3844charge 0 multiplicity 1
 C        -0.064000        -0.167102        -0.068771
 C         1.464318         0.050895         0.015012
 C         2.201897         1.302234         0.448106
 C         3.381022         0.442803         0.963860
 C         4.098853        -0.594004         0.036146
 C         3.581879        -0.387482        -1.338224
 O         1.985915        -0.286505        -1.253313
 O         3.315149        -1.705822         0.608321
 C         2.413414        -0.683577         1.112895
 H        -0.580695         0.743041        -0.351741
 H        -0.265241        -0.952062        -0.795620
 H        -0.459699        -0.468724         1.007609
 H         2.541950         2.028552        -0.329658
 H         1.763716         1.772654         1.356260
 H         4.029684         0.619928         1.855796
 H         5.201449        -0.637683         0.110334
 H         3.908390         0.514433        -1.774528
 H         3.744583        -1.240056        -1.959537
 H         1.831435        -0.983654         1.976253
