19
Iteration:   475charge 0 multiplicity 1
 C         0.132370        -0.168371         0.148498
 C         1.593951         0.009298        -0.124839
 C         2.255417         1.359170         0.338393
 C         3.228296         0.438290         1.090908
 C         3.966286        -0.436019         0.084775
 C         3.554925        -0.363642        -1.286750
 O         2.022944        -0.350950        -1.368332
 O         3.285051        -1.757869         0.578296
 C         2.316927        -0.771606         1.074053
 H        -0.159581         0.343120         1.010317
 H        -0.423328         0.248003        -0.699711
 H        -0.123256        -1.224331        -0.005621
 H         2.754684         1.956956        -0.492398
 H         1.581610         1.787730         1.099552
 H         3.819353         0.745434         2.062738
 H         5.094725        -0.332908         0.042916
 H         3.952350         0.746075        -1.447484
 H         3.889624        -1.072404        -1.940688
 H         1.567465        -1.183703         1.908816
