19
Iteration:  2396charge 0 multiplicity 1
 C        -0.033988        -0.145912        -0.185053
 C         1.487509         0.054681         0.019291
 C         2.246195         1.320014         0.389384
 C         3.394727         0.412327         0.997449
 C         4.033745        -0.575698         0.044933
 C         3.445923        -0.399108        -1.341669
 O         2.009564        -0.310133        -1.255027
 O         3.374355        -1.681015         0.681414
 C         2.388326        -0.700281         1.146400
 H        -0.224914        -0.221358         0.814652
 H        -0.697562         0.713860        -0.613163
 H        -0.117864        -1.143031        -0.563109
 H         2.466653         2.081799        -0.424472
 H         1.988655         1.621905         1.448404
 H         3.932625         0.816725         1.948171
 H         5.080174        -0.628549         0.039416
 H         3.991180         0.427001        -1.728423
 H         3.544340        -1.323143        -1.822461
 H         1.806810        -0.994406         2.034341
