19
Iteration:  1787
 C         0.048134        -0.196467        -0.165328
 C         1.535344         0.029080         0.032452
 C         2.210942         1.403582         0.479558
 C         3.302812         0.541692         1.053143
 C         4.046213        -0.584993         0.002234
 C         3.474345        -0.455779        -1.389166
 O         2.067688        -0.349413        -1.313956
 O         3.297436        -1.716024         0.689642
 C         2.417986        -0.707063         1.183229
 H        -0.433322         0.419103         0.600771
 H        -0.260828         0.248968        -1.175465
 H        -0.292487        -1.249032         0.007368
 H         2.410814         2.223995        -0.127681
 H         1.610561         1.771073         1.337103
 H         3.930358         1.006267         1.836715
 H         5.133042        -0.828111        -0.177559
 H         3.934037         0.432124        -1.748357
 H         3.495489        -1.316658        -2.080927
 H         1.666879        -0.940652         1.972092
