19
Iteration:  2008charge 0 multiplicity 1
 C         0.052533        -0.021153        -0.067924
 C         1.584510        -0.009064        -0.005073
 C         2.216044         1.315303         0.455842
 C         3.307273         0.400407         1.110132
 C         4.070327        -0.510847         0.030683
 C         3.538562        -0.323562        -1.392219
 O         1.917935        -0.483715        -1.303021
 O         3.391454        -1.661445         0.616254
 C         2.333643        -0.760644         1.119733
 H        -0.404637         0.323099         0.951694
 H        -0.258696         0.509457        -0.907329
 H        -0.389335        -1.003531        -0.253596
 H         2.348827         2.118646        -0.343324
 H         1.714442         1.870736         1.220656
 H         3.797886         0.766232         1.958256
 H         5.156664        -0.826931         0.266938
 H         3.676042         0.683274        -1.947252
 H         3.872738        -1.088464        -2.138583
 H         1.765537        -1.039560         1.971924
