19
Iteration:    30
 C        -0.010891        -0.053130        -0.057634
 C         1.511543        -0.000183        -0.069084
 C         2.133970         1.270340         0.516800
 C         3.265784         0.463882         0.986274
 C         4.036493        -0.480434         0.047342
 C         3.473740        -0.574853        -1.350262
 O         2.039053        -0.217799        -1.383739
 O         3.494470        -1.652236         0.709086
 C         2.394678        -0.809370         1.137251
 H        -0.353771         0.003405         0.939311
 H        -0.581161         0.702486        -0.554857
 H        -0.333977        -1.144059        -0.347512
 H         2.210364         1.997530        -0.310880
 H         1.473407         1.779867         1.308899
 H         4.015327         0.928507         1.774485
 H         5.212599        -0.463478         0.072763
 H         3.984216         0.144487        -2.032823
 H         3.703863        -1.493410        -1.857637
 H         1.936759        -1.242290         2.077785
