19
Iteration:  4262charge 0 multiplicity 1
 C         0.098113        -0.041495        -0.109191
 C         1.585404        -0.051813        -0.044815
 C         2.254743         1.298982         0.485165
 C         3.358417         0.513078         1.082112
 C         3.975925        -0.549248         0.033160
 C         3.424911        -0.285349        -1.339585
 O         1.976729        -0.513787        -1.297489
 O         3.309118        -1.693020         0.562688
 C         2.441652        -0.768701         1.225277
 H        -0.380982         0.950902        -0.487029
 H        -0.196285        -0.846335        -0.881689
 H        -0.349472        -0.165674         0.891499
 H         2.344845         2.116336        -0.323030
 H         1.662300         1.676227         1.349923
 H         3.896321         1.129260         1.882390
 H         5.088840        -0.566460        -0.172112
 H         3.589839         0.793815        -1.662875
 H         3.771838        -0.960067        -2.067765
 H         1.793667        -1.134582         2.047920
