19
Iteration:  2688charge 0 multiplicity 1
 C         0.122349        -0.196844        -0.006827
 C         1.567969         0.011771         0.002049
 C         2.251522         1.287974         0.367745
 C         3.373031         0.428372         1.077448
 C         4.036577        -0.542781         0.013586
 C         3.509253        -0.302901        -1.340551
 O         2.068807        -0.294940        -1.316427
 O         3.190413        -1.749773         0.591800
 C         2.287652        -0.677125         1.155763
 H        -0.268505         0.104559         0.994244
 H        -0.580915         0.347055        -0.774863
 H        -0.164779        -1.323395        -0.087265
 H         2.515192         2.201327        -0.268007
 H         1.674738         1.843216         1.123858
 H         3.851465         0.768032         2.021779
 H         5.217041        -0.618806         0.076996
 H         3.751351         0.537572        -1.924854
 H         3.825132        -1.149715        -2.051458
 H         1.713366        -1.014509         2.054949
