19
Iteration:   856
 C         0.097557        -0.032060         0.144112
 C         1.598412        -0.003876        -0.112329
 C         2.204552         1.309121         0.295593
 C         3.219033         0.466701         1.116337
 C         3.993853        -0.505241         0.102151
 C         3.518945        -0.298941        -1.356091
 O         2.089335        -0.541832        -1.374768
 O         3.323194        -1.656678         0.652961
 C         2.314651        -0.790523         1.111071
 H        -0.246854        -0.089763         1.158140
 H        -0.277281         0.817299        -0.568344
 H        -0.317971        -0.972287        -0.306128
 H         2.511706         1.820438        -0.575988
 H         1.487096         2.024106         0.751047
 H         3.929491         0.784312         1.831747
 H         5.097506        -0.420148         0.442974
 H         3.640048         0.697536        -1.759745
 H         3.968937        -1.033771        -2.084673
 H         1.707191        -1.120224         1.854665
