19
Iteration:  3024
 C        -0.009005        -0.053356        -0.131587
 C         1.533517         0.005449         0.015998
 C         2.157478         1.330209         0.512595
 C         3.352119         0.466049         1.104104
 C         4.097850        -0.544128         0.031483
 C         3.462042        -0.379085        -1.362527
 O         2.007591        -0.437531        -1.320473
 O         3.369064        -1.708928         0.605670
 C         2.382076        -0.737560         1.102579
 H        -0.622157         0.692552         0.529776
 H        -0.207693         0.232045        -1.127278
 H        -0.167223        -1.142933         0.234686
 H         2.357325         2.074942        -0.262157
 H         1.819451         1.866584         1.410535
 H         3.997924         0.699136         1.931878
 H         5.167098        -0.657896        -0.000438
 H         3.705420         0.776720        -1.677192
 H         3.807791        -1.127720        -2.054212
 H         1.864905        -1.045737         1.982966
