19
Iteration:  1221
 C         0.016724        -0.231084         0.019406
 C         1.540396         0.049841         0.004206
 C         2.299779         1.356039         0.298866
 C         3.326715         0.450359         1.040254
 C         3.974949        -0.573073         0.034057
 C         3.532912        -0.270659        -1.352837
 O         2.104628        -0.402909        -1.332401
 O         3.225500        -1.702318         0.634724
 C         2.295608        -0.735450         1.261417
 H        -0.541242         0.040718         0.970943
 H        -0.457742         0.369023        -0.647250
 H        -0.021942        -1.201668        -0.421690
 H         2.696351         1.947481        -0.626340
 H         1.862265         2.057994         0.985348
 H         4.092255         0.987340         1.739551
 H         5.065100        -0.608861         0.106564
 H         3.929988         0.758731        -1.791755
 H         3.981014        -0.942637        -2.093517
 H         1.724220        -1.199150         2.084914
