19
Iteration:   401charge 0 multiplicity 1
 C         0.004595        -0.034459        -0.149118
 C         1.534957        -0.053746         0.029035
 C         2.191586         1.312235         0.501187
 C         3.303951         0.471919         1.081316
 C         4.035486        -0.476915         0.002053
 C         3.425086        -0.417858        -1.373721
 O         2.040195        -0.408403        -1.265255
 O         3.416911        -1.659864         0.646570
 C         2.413313        -0.794109         1.136006
 H        -0.579105         0.076973         0.783003
 H        -0.222254         0.842470        -0.799992
 H        -0.403778        -1.010774        -0.649309
 H         2.457185         2.132353        -0.253501
 H         1.488791         1.754232         1.173167
 H         4.158382         0.854818         1.755284
 H         5.098366        -0.481039        -0.025593
 H         3.726136         0.545708        -1.888477
 H         3.736980        -1.353486        -2.058982
 H         1.784745        -1.275373         1.954051
