19
Iteration:  3268charge 0 multiplicity 1
 C         0.066663        -0.256024        -0.075442
 C         1.569529         0.061645        -0.040723
 C         2.211293         1.376530         0.485351
 C         3.354708         0.506360         0.977659
 C         3.988707        -0.557154        -0.005329
 C         3.496968        -0.423872        -1.378629
 O         2.028204        -0.312516        -1.374246
 O         3.255187        -1.748731         0.723029
 C         2.441298        -0.700635         1.245980
 H        -0.312934        -0.169411         0.933991
 H        -0.539440         0.633692        -0.693519
 H        -0.165856        -1.101692        -0.865737
 H         2.386905         2.269661        -0.161197
 H         1.692927         1.713856         1.384742
 H         4.040810         0.836723         1.882067
 H         5.063118        -0.602105         0.016110
 H         3.735228         0.583299        -1.733335
 H         3.707665        -1.190544        -2.141410
 H         1.770618        -0.996443         2.097507
