19
Iteration:  3635
 C        -0.011527         0.044375        -0.151670
 C         1.530757        -0.004076        -0.046186
 C         2.217948         1.294049         0.452374
 C         3.301215         0.466492         1.148681
 C         3.998535        -0.405688         0.033530
 C         3.414691        -0.397551        -1.387350
 O         2.019877        -0.552069        -1.301708
 O         3.401222        -1.698239         0.594092
 C         2.470754        -0.811257         1.219063
 H        -0.331117         0.311828         0.835778
 H        -0.344101         0.793348        -0.784932
 H        -0.598538        -0.926143        -0.340707
 H         2.682906         1.924404        -0.281393
 H         1.813650         1.823255         1.243220
 H         3.987184         0.930232         1.875039
 H         5.075397        -0.378367        -0.034996
 H         3.645142         0.687498        -1.828895
 H         3.892372        -1.273343        -1.839921
 H         1.834441        -1.053520         2.061360
