19
Iteration:  4985charge 0 multiplicity 1
 C         0.000753         0.075879        -0.043660
 C         1.501673        -0.110606         0.030477
 C         2.200103         1.237453         0.364437
 C         3.308664         0.397558         1.077986
 C         4.123838        -0.425455         0.064778
 C         3.430494        -0.290010        -1.322973
 O         1.971660        -0.443484        -1.311349
 O         3.423358        -1.683100         0.625934
 C         2.417621        -0.875214         1.094149
 H        -0.290495         0.979903        -0.584279
 H        -0.589753        -0.631526        -0.618270
 H        -0.404369         0.268622         1.029837
 H         2.330770         1.976980        -0.480431
 H         1.613150         1.793453         1.136385
 H         3.928295         0.799686         1.936515
 H         5.241134        -0.373958         0.098610
 H         3.923096         0.615591        -1.813242
 H         3.838082        -1.150812        -1.985766
 H         1.757227        -1.296626         1.871486
