19
Iteration:  2256charge 0 multiplicity 1
 C         0.018137        -0.121155        -0.095661
 C         1.489969         0.041455         0.064328
 C         2.239959         1.317515         0.436893
 C         3.394574         0.483071         1.053829
 C         4.067533        -0.567461         0.038601
 C         3.467027        -0.383175        -1.428738
 O         2.075562        -0.360392        -1.314990
 O         3.310686        -1.671550         0.647976
 C         2.298479        -0.755865         1.165808
 H        -0.450138        -0.196301         0.904829
 H        -0.559826         0.722480        -0.566950
 H        -0.102466        -1.079141        -0.582896
 H         2.446880         1.859416        -0.417548
 H         1.848141         1.849095         1.276415
 H         4.068977         0.872632         1.896331
 H         5.127228        -0.664834        -0.062075
 H         3.868367         0.489417        -1.936439
 H         3.598344        -1.349537        -1.923688
 H         1.729829        -1.081150         2.069844
