19
Iteration:   990
 C         0.026624        -0.042880        -0.027791
 C         1.537525        -0.025965        -0.077214
 C         2.246925         1.289349         0.277236
 C         3.317682         0.488966         1.097209
 C         4.067993        -0.480268         0.088372
 C         3.483562        -0.282360        -1.268771
 O         2.040379        -0.548884        -1.253765
 O         3.288975        -1.651052         0.585085
 C         2.381577        -0.787784         1.151775
 H        -0.378689         0.064832         1.073610
 H        -0.486829         0.797571        -0.585987
 H        -0.368458        -1.004412        -0.444328
 H         2.650573         1.940389        -0.554108
 H         1.515214         1.966499         0.784649
 H         3.975334         0.853156         1.916258
 H         5.168210        -0.602537         0.229902
 H         3.667894         0.658223        -1.675441
 H         3.859091        -0.938412        -2.061978
 H         1.848846        -1.370530         1.933118
