19
Iteration:   170
 C         0.029205        -0.143313        -0.175211
 C         1.543003        -0.025551        -0.029324
 C         2.178247         1.232004         0.502939
 C         3.368810         0.478055         1.030602
 C         4.048394        -0.444214         0.030180
 C         3.408350        -0.457037        -1.379378
 O         1.999786        -0.271962        -1.290764
 O         3.360282        -1.675840         0.672910
 C         2.441820        -0.750844         1.192250
 H        -0.413716         0.132648         0.814834
 H        -0.180478         0.725586        -0.826634
 H        -0.396460        -1.171797        -0.519273
 H         2.270299         2.115381        -0.300500
 H         1.613400         1.642119         1.349020
 H         3.987765         0.932996         1.882676
 H         5.134621        -0.466852         0.054516
 H         3.797713         0.205625        -2.147516
 H         3.736180        -1.493443        -1.853464
 H         1.939328        -1.042850         2.174588
