19
Iteration:  1692charge 0 multiplicity 1
 C         0.013925        -0.081437        -0.159840
 C         1.538045         0.064971         0.044736
 C         2.180400         1.385070         0.443986
 C         3.318288         0.443918         1.068292
 C         4.078423        -0.568827         0.031386
 C         3.488437        -0.397639        -1.420303
 O         2.060253        -0.486753        -1.272925
 O         3.352833        -1.753107         0.657054
 C         2.337194        -0.634225         1.176245
 H        -0.422770        -0.086779         0.955787
 H        -0.344213         0.745195        -0.686491
 H        -0.197564        -1.043253        -0.641025
 H         2.193134         2.155897        -0.521169
 H         1.654918         1.922439         1.247812
 H         3.849344         0.879281         1.896542
 H         5.193688        -0.579405         0.169294
 H         3.663187         0.599757        -1.992789
 H         3.889404        -1.288943        -2.081091
 H         1.920044        -0.934537         2.101627
