19
Iteration:  4393
 C         0.087567         0.044846        -0.075451
 C         1.520197        -0.079734         0.110592
 C         2.226912         1.283377         0.426975
 C         3.339331         0.446952         1.134676
 C         4.009147        -0.433598        -0.036139
 C         3.421194        -0.256837        -1.446588
 O         2.019556        -0.524280        -1.272661
 O         3.365272        -1.677461         0.587044
 C         2.384739        -0.860646         1.192399
 H        -0.122829         0.884887        -0.796760
 H        -0.328095        -0.861693        -0.581411
 H        -0.513074         0.004396         0.799733
 H         2.624858         2.018199        -0.217262
 H         1.567255         1.748843         1.091089
 H         3.974947         0.878056         1.896187
 H         5.099732        -0.569060        -0.147041
 H         3.601994         0.818320        -1.786124
 H         3.742195        -1.009675        -2.136237
 H         1.791120        -1.343704         1.980128
