19
Iteration:   911
 C         0.114837        -0.194968        -0.204578
 C         1.512660         0.018189         0.074625
 C         2.197027         1.340382         0.439744
 C         3.316478         0.501176         0.997571
 C         4.041312        -0.527206        -0.043499
 C         3.438162        -0.460310        -1.389602
 O         2.080778        -0.312658        -1.223098
 O         3.288960        -1.664667         0.657854
 C         2.378628        -0.731710         1.285958
 H        -0.522580         0.295899         0.529150
 H        -0.207314         0.253858        -1.264859
 H        -0.165301        -1.286725        -0.254769
 H         2.203216         2.014622        -0.387854
 H         1.770651         1.844501         1.400257
 H         3.890208         1.030433         1.673676
 H         5.221916        -0.633812        -0.023024
 H         3.773705         0.335179        -1.941184
 H         3.580630        -1.415135        -1.967498
 H         2.013160        -1.063478         2.170331
