19
Iteration:  2146charge 0 multiplicity 1
 C        -0.073172        -0.095586        -0.125816
 C         1.515448         0.013140        -0.080496
 C         2.271161         1.302050         0.530301
 C         3.441355         0.406070         1.060264
 C         4.034820        -0.537999         0.028478
 C         3.425371        -0.309572        -1.361476
 O         1.969694        -0.400454        -1.287964
 O         3.398247        -1.688138         0.681477
 C         2.398361        -0.737346         1.124461
 H        -0.547350         0.610236         0.548883
 H        -0.306002         0.086262        -1.305043
 H        -0.497649        -1.124957        -0.112473
 H         2.503025         2.012716        -0.239107
 H         1.778249         2.027288         1.229503
 H         4.219973         0.465825         1.948689
 H         5.097474        -0.596902        -0.031096
 H         3.810787         0.700435        -1.768021
 H         3.654078        -1.253568        -1.915681
 H         1.704509        -0.920278         2.048570
