19
Iteration:   354
 C         0.123276        -0.166379         0.106487
 C         1.563088        -0.019319        -0.037200
 C         2.254607         1.341891         0.355891
 C         3.213829         0.500285         1.031132
 C         3.974836        -0.533904         0.061201
 C         3.542890        -0.296917        -1.347117
 O         2.072485        -0.418464        -1.356508
 O         3.293434        -1.685380         0.644627
 C         2.305836        -0.808243         1.046188
 H        -0.089265        -0.074422         1.205601
 H        -0.388293         0.680737        -0.414026
 H        -0.275526        -1.176165        -0.282498
 H         2.570002         2.059042        -0.534128
 H         1.810145         2.090103         1.151385
 H         3.813060         0.867118         2.024631
 H         5.094820        -0.576075         0.213825
 H         3.796832         0.717252        -1.665361
 H         3.923787        -1.036896        -2.109116
 H         1.610475        -1.023364         1.999906
