19
Iteration:  4759charge 0 multiplicity 1
 C         0.067199        -0.296941         0.077620
 C         1.503876         0.081091         0.001476
 C         2.241193         1.372884         0.465486
 C         3.347228         0.409715         1.084905
 C         4.034975        -0.542887         0.060509
 C         3.560397        -0.409952        -1.395110
 O         2.091552        -0.204206        -1.306848
 O         3.212579        -1.699608         0.499292
 C         2.290175        -0.724487         1.067231
 H        -0.371990         0.080400        -0.895072
 H        -0.042691        -1.447967         0.187700
 H        -0.610299         0.051930         0.953970
 H         2.482618         2.010663        -0.381836
 H         1.879670         1.975856         1.295087
 H         4.077627         0.650579         1.911768
 H         5.127742        -0.751851         0.153951
 H         4.065943         0.431621        -1.965620
 H         3.703285        -1.327206        -1.904184
 H         1.740356        -0.796697         2.018937
