19
Iteration:  3034charge 0 multiplicity 1
 C        -0.000246        -0.018410        -0.137604
 C         1.494482        -0.020605         0.013337
 C         2.229430         1.382321         0.541347
 C         3.305248         0.487917         1.120187
 C         4.085052        -0.579914        -0.011805
 C         3.506155        -0.353520        -1.410975
 O         1.999925        -0.510694        -1.254878
 O         3.399910        -1.654821         0.588275
 C         2.369383        -0.757395         1.108647
 H        -0.463352         0.640041         0.728558
 H        -0.406445         0.082211        -1.091027
 H        -0.487281        -1.091981        -0.042388
 H         2.628496         2.089132        -0.197179
 H         1.588710         1.912242         1.342601
 H         3.636918         0.674890         2.115724
 H         5.170158        -0.883338        -0.011145
 H         3.757644         0.772245        -1.836499
 H         3.938077        -0.999719        -2.161883
 H         1.832012        -1.154941         1.946684
