19
Iteration:   493charge 0 multiplicity 1
 C         0.050494        -0.134252         0.085565
 C         1.558093         0.018346        -0.086543
 C         2.232606         1.342782         0.409366
 C         3.250680         0.430042         1.162365
 C         4.065855        -0.511993         0.097101
 C         3.480387        -0.327448        -1.431630
 O         2.087773        -0.385252        -1.410442
 O         3.324608        -1.631718         0.616319
 C         2.304032        -0.804832         1.055008
 H        -0.091593         0.177640         1.196774
 H        -0.674964         0.442518        -0.541617
 H        -0.306150        -1.184265        -0.026682
 H         2.713491         1.859674        -0.389208
 H         1.499111         1.878792         1.162535
 H         3.807685         0.833445         2.006565
 H         5.116984        -0.793654         0.437220
 H         3.975648         0.652374        -1.910717
 H         3.764108        -1.412677        -1.765685
 H         1.755761        -1.248694         1.836944
