19
Iteration:   388charge 0 multiplicity 1
 C        -0.005532        -0.043665        -0.033172
 C         1.496418        -0.054833        -0.034006
 C         2.211651         1.259879         0.448882
 C         3.306108         0.406855         1.035774
 C         4.066122        -0.437912         0.058167
 C         3.497082        -0.377212        -1.374488
 O         1.995246        -0.402334        -1.337980
 O         3.422950        -1.631459         0.658838
 C         2.355464        -0.776382         1.099506
 H        -0.395075         0.049552         0.996076
 H        -0.363481         0.846720        -0.619824
 H        -0.361550        -0.946635        -0.684480
 H         2.559730         1.912261        -0.477984
 H         1.846113         1.803086         1.386445
 H         3.689700         0.705466         2.149791
 H         5.172223        -0.469663         0.201543
 H         3.858405         0.443854        -1.968276
 H         3.800107        -1.363102        -1.884615
 H         1.838384        -1.081373         2.161566
