19
Iteration:  4865charge 0 multiplicity 1
 C         0.023283        -0.002653        -0.068405
 C         1.526973         0.063395        -0.031449
 C         2.235843         1.297029         0.497925
 C         3.324549         0.453378         1.061827
 C         4.028204        -0.521072         0.009152
 C         3.451676        -0.303313        -1.355298
 O         2.010538        -0.464209        -1.317052
 O         3.422150        -1.741414         0.611667
 C         2.373469        -0.789613         1.140027
 H        -0.603291         0.650654        -0.590502
 H        -0.231289        -0.948327        -0.509292
 H        -0.357546         0.074331         1.015602
 H         2.380455         2.203325        -0.188074
 H         1.526307         1.641202         1.312734
 H         3.940909         0.675477         2.030247
 H         5.155961        -0.501185        -0.032759
 H         3.803406         0.553857        -1.859668
 H         3.781650        -1.182328        -2.025770
 H         1.580801        -1.165892         1.891360
