19
Iteration:  4265charge 0 multiplicity 1
 C         0.091579        -0.045327        -0.124343
 C         1.608913        -0.038749        -0.040393
 C         2.247976         1.285682         0.481780
 C         3.342553         0.515715         1.093226
 C         3.989970        -0.570059         0.022415
 C         3.410133        -0.253512        -1.362218
 O         1.981004        -0.490679        -1.297718
 O         3.311790        -1.717606         0.575725
 C         2.422167        -0.747551         1.236972
 H        -0.393455         0.832101        -0.510171
 H        -0.170437        -0.879272        -0.686482
 H        -0.384015        -0.257296         0.900291
 H         2.378176         2.153000        -0.280991
 H         1.679155         1.685856         1.370485
 H         3.930985         1.157373         1.687872
 H         5.048188        -0.698070        -0.090207
 H         3.590510         0.710218        -1.718587
 H         3.882923        -0.950482        -2.075314
 H         1.856941        -1.102910         2.071207
