19
Iteration:  3643charge 0 multiplicity 1
 C         0.001234         0.055999        -0.099193
 C         1.533785        -0.015149        -0.061573
 C         2.231527         1.349358         0.459366
 C         3.337134         0.448205         1.132012
 C         4.021655        -0.417157         0.054839
 C         3.475872        -0.389144        -1.332072
 O         1.939389        -0.614174        -1.345118
 O         3.431427        -1.665843         0.596978
 C         2.411998        -0.828638         1.191212
 H        -0.321598         0.222665         1.000500
 H        -0.382596         0.976228        -0.692571
 H        -0.302493        -0.847932        -0.580245
 H         2.608312         2.123032        -0.277903
 H         1.601758         2.087611         1.141488
 H         3.787972         0.812353         2.059578
 H         5.131192        -0.380725         0.028511
 H         3.604913         0.541518        -1.976596
 H         3.882494        -1.210399        -2.079523
 H         1.763199        -1.217686         2.017174
