19
Iteration:   466
 C         0.074666        -0.151510         0.057119
 C         1.559721         0.041967        -0.049475
 C         2.238097         1.326784         0.354672
 C         3.225784         0.407147         1.083966
 C         4.071086        -0.510549         0.068440
 C         3.509575        -0.293969        -1.313227
 O         2.032771        -0.372946        -1.359411
 O         3.279344        -1.733498         0.593030
 C         2.369789        -0.763250         1.089855
 H        -0.387469         0.214863         0.961301
 H        -0.445634         0.268885        -0.808892
 H        -0.121436        -1.262919         0.167205
 H         2.694779         2.083485        -0.385181
 H         1.603762         1.968022         0.899264
 H         3.861601         0.778310         1.935958
 H         5.100280        -0.568897         0.330217
 H         3.837966         0.647088        -1.530282
 H         3.913211        -0.985701        -2.081560
 H         1.824691        -1.041730         2.076325
