19
Iteration:  2934charge 0 multiplicity 1
 C         0.048930        -0.046483        -0.038137
 C         1.522952        -0.113036         0.018004
 C         2.242555         1.353798         0.371055
 C         3.317700         0.445984         1.133899
 C         4.016412        -0.526897         0.040894
 C         3.482788        -0.246774        -1.374646
 O         2.040744        -0.456541        -1.280921
 O         3.313700        -1.732648         0.614146
 C         2.388990        -0.739545         1.091629
 H        -0.572108        -0.048111         0.940376
 H        -0.388840         0.796758        -0.702118
 H        -0.176315        -0.886405        -0.772246
 H         2.368329         1.887190        -0.565844
 H         1.691189         1.811969         1.228723
 H         3.924911         0.871147         1.950845
 H         5.133042        -0.634499         0.011634
 H         3.868247         0.873760        -1.675999
 H         3.755927        -1.151568        -1.925087
 H         1.943749        -0.944625         2.072754
