19
Iteration:  1442
 C        -0.035195        -0.017975        -0.148449
 C         1.501218        -0.006408         0.037471
 C         2.181787         1.300796         0.451239
 C         3.302092         0.390965         1.002708
 C         4.017095        -0.524078         0.042541
 C         3.475624        -0.378181        -1.383815
 O         2.102624        -0.425600        -1.256915
 O         3.377163        -1.649851         0.639618
 C         2.426043        -0.745222         1.145924
 H        -0.510135         0.673821         0.751952
 H        -0.229691         0.363066        -1.127164
 H        -0.539827        -1.002604         0.090670
 H         2.514751         2.009460        -0.325811
 H         1.685489         1.837320         1.240604
 H         3.870239         0.709326         1.859625
 H         5.058569        -0.661314         0.025915
 H         3.762498         0.417938        -1.929256
 H         3.858196        -1.271421        -1.755275
 H         1.895661        -1.028562         2.079375
