19
Iteration:   151charge 0 multiplicity 1
 C        -0.053887        -0.067166        -0.041757
 C         1.486257        -0.020178        -0.004389
 C         2.192032         1.320625         0.505042
 C         3.303265         0.453857         1.125711
 C         4.049479        -0.500182         0.019347
 C         3.477327        -0.491330        -1.360233
 O         2.027980        -0.337139        -1.409822
 O         3.473426        -1.608418         0.643066
 C         2.373597        -0.801677         1.113693
 H        -0.572947         0.336116         0.784335
 H        -0.403053         0.414299        -0.950110
 H        -0.279879        -1.251216        -0.092439
 H         2.461244         2.108696        -0.343532
 H         1.546670         1.914401         1.325448
 H         3.960456         0.853170         1.966330
 H         5.188199        -0.561548        -0.035064
 H         4.004562         0.302947        -2.031593
 H         3.795392        -1.452302        -1.821739
 H         1.805661        -1.178577         1.981477
