19
Iteration:  2160charge 0 multiplicity 1
 C         0.032741        -0.049450        -0.199822
 C         1.503972        -0.030401         0.070754
 C         2.260427         1.356043         0.506767
 C         3.297746         0.398015         1.061726
 C         4.038895        -0.531002        -0.020887
 C         3.386015        -0.371638        -1.393432
 O         1.999565        -0.387141        -1.279684
 O         3.458274        -1.701060         0.680755
 C         2.373745        -0.761245         1.148877
 H        -0.493192         0.689597         0.506677
 H        -0.157284         0.407419        -1.153906
 H        -0.430028        -1.003471        -0.003038
 H         2.587166         2.060406        -0.350552
 H         1.760481         1.769783         1.381531
 H         3.814720         0.747848         1.887771
 H         5.172449        -0.624140        -0.066057
 H         3.628747         0.618141        -1.875906
 H         3.672679        -1.201229        -2.096288
 H         1.861982        -1.100825         2.074668
