19
Iteration:  3303charge 0 multiplicity 1
 C         0.015964        -0.157441        -0.018780
 C         1.495514         0.009887        -0.027176
 C         2.291068         1.339535         0.332801
 C         3.298725         0.448004         1.063247
 C         4.137790        -0.430631         0.066870
 C         3.460540        -0.373138        -1.263678
 O         2.032726        -0.401821        -1.300613
 O         3.248696        -1.708045         0.566063
 C         2.414135        -0.748146         1.135872
 H        -0.329163        -0.570520         1.002231
 H        -0.429355         0.967567        -0.251055
 H        -0.226420        -0.984170        -0.667375
 H         2.515407         1.992284        -0.480943
 H         1.680191         1.864880         1.038171
 H         3.897883         0.761032         1.974445
 H         5.154020        -0.441769         0.251994
 H         3.891046         0.440462        -1.838469
 H         3.667132        -1.219624        -1.937355
 H         1.773439        -1.029183         1.993617
