19
Iteration:  1551
 C         0.016297        -0.026212        -0.216453
 C         1.499883        -0.085360         0.015069
 C         2.254147         1.272306         0.526968
 C         3.322324         0.481863         1.079476
 C         4.008229        -0.582416        -0.012966
 C         3.436642        -0.435929        -1.442907
 O         2.004316        -0.381914        -1.362413
 O         3.434542        -1.603604         0.761551
 C         2.367832        -0.720825         1.225552
 H        -0.391740        -0.053784         0.918325
 H        -0.438775         0.865228        -0.594253
 H        -0.300062        -0.929123        -0.795426
 H         2.423958         2.043251        -0.219317
 H         1.634748         1.708654         1.256559
 H         4.017648         0.917644         1.749966
 H         5.057955        -0.702336        -0.135350
 H         3.880059         0.593251        -2.052402
 H         3.854281        -1.309421        -1.874358
 H         1.840161        -1.125994         2.072825
