19
Iteration:  4818charge 0 multiplicity 1
 C        -0.051681         0.049725        -0.108709
 C         1.483560         0.004830        -0.036576
 C         2.223285         1.283686         0.415473
 C         3.380056         0.380756         1.115134
 C         4.014335        -0.469782         0.070896
 C         3.437874        -0.300768        -1.324105
 O         2.009958        -0.476699        -1.223073
 O         3.449084        -1.718787         0.555794
 C         2.422552        -0.858215         1.145427
 H        -0.504184         0.985316        -0.703077
 H        -0.454421        -0.688339        -0.825984
 H        -0.539194         0.107712         0.822614
 H         2.476974         2.026887        -0.366881
 H         1.594851         1.815012         1.178158
 H         4.114417         0.867063         1.716049
 H         5.098115        -0.509047         0.096648
 H         3.614251         0.689962        -1.647956
 H         3.732266        -0.938880        -2.191589
 H         2.069641        -1.241399         2.077855
