19
Iteration:  4817
 C        -0.043734         0.043600        -0.108195
 C         1.475283         0.002126        -0.031507
 C         2.236010         1.291725         0.419401
 C         3.374446         0.384559         1.101860
 C         4.021514        -0.475929         0.067212
 C         3.434162        -0.298107        -1.320988
 O         2.013132        -0.474271        -1.225512
 O         3.447850        -1.711404         0.564558
 C         2.415871        -0.867951         1.141159
 H        -0.517231         0.981331        -0.722054
 H        -0.504165        -0.705919        -0.818329
 H        -0.526895         0.089019         0.821176
 H         2.475947         2.016847        -0.354131
 H         1.619346         1.785318         1.190000
 H         4.105552         0.826343         1.702686
 H         5.096185        -0.509810         0.094000
 H         3.639847         0.718205        -1.649228
 H         3.699320        -0.922136        -2.167727
 H         2.041477        -1.199007         2.061517
