19
Iteration:  2042
 C         0.007909         0.020080        -0.201814
 C         1.527077        -0.070051         0.038482
 C         2.189477         1.285988         0.488799
 C         3.332820         0.460895         1.050303
 C         4.021283        -0.509700         0.013378
 C         3.491377        -0.403926        -1.384836
 O         1.968884        -0.420070        -1.262495
 O         3.396225        -1.641488         0.592731
 C         2.430587        -0.793057         1.241595
 H        -0.512471        -0.009146         0.850485
 H        -0.219009         0.990502        -0.448627
 H        -0.402430        -0.787475        -0.810115
 H         2.361474         1.984059        -0.374902
 H         1.647340         1.615947         1.331128
 H         4.055192         0.820256         1.735483
 H         5.143326        -0.709448         0.106832
 H         3.783335         0.581137        -1.963506
 H         3.815501        -1.305724        -2.001303
 H         1.942475        -1.000082         2.146768
