19
Iteration:  3119charge 0 multiplicity 1
 C         0.059154        -0.206487        -0.078620
 C         1.554765        -0.012269        -0.061656
 C         2.212144         1.381858         0.470993
 C         3.410408         0.483648         1.065870
 C         4.051902        -0.554519         0.081174
 C         3.458834        -0.481290        -1.354479
 O         2.011933        -0.305764        -1.348051
 O         3.286876        -1.655965         0.634283
 C         2.386001        -0.667187         1.135644
 H        -0.377361        -0.565682         0.933690
 H        -0.428932         0.742581        -0.327752
 H        -0.106493        -1.006347        -0.738380
 H         2.379611         2.254753        -0.226215
 H         1.465141         1.672817         1.301686
 H         3.870303         0.856955         1.990796
 H         5.205684        -0.777903         0.083494
 H         3.749037         0.425779        -1.846284
 H         3.656554        -1.414866        -1.956331
 H         1.672610        -1.038884         1.900910
