19
Iteration:  1566
 C         0.004161        -0.050863        -0.155130
 C         1.544503         0.042818        -0.069504
 C         2.192425         1.328100         0.430557
 C         3.376039         0.460476         1.072591
 C         4.009416        -0.477619         0.055047
 C         3.405306        -0.403012        -1.319064
 O         1.989770        -0.484732        -1.321631
 O         3.390180        -1.722567         0.672777
 C         2.452002        -0.746368         1.207134
 H        -0.559506         0.008073         0.778017
 H        -0.246558         0.872059        -0.814209
 H        -0.235068        -0.917537        -0.786247
 H         2.436845         2.050801        -0.323115
 H         1.610111         1.811854         1.283776
 H         4.066992         0.704323         1.937115
 H         5.114604        -0.471322         0.089577
 H         3.759870         0.603551        -1.672311
 H         3.729980        -1.106625        -2.141802
 H         1.900650        -1.007684         2.178800
