19
Iteration:  2324charge 0 multiplicity 1
 C         0.003846        -0.054534        -0.014515
 C         1.501538         0.007732        -0.046668
 C         2.268396         1.436858         0.372707
 C         3.289295         0.447151         1.071244
 C         4.036683        -0.527278         0.063069
 C         3.431190        -0.284958        -1.333128
 O         2.018398        -0.464728        -1.304965
 O         3.443995        -1.827052         0.609498
 C         2.315467        -0.767488         1.123687
 H        -0.395126         0.745990         0.776177
 H        -0.285586         0.404779        -0.919276
 H        -0.344908        -1.107700         0.134744
 H         2.600196         1.719274        -0.573318
 H         1.820382         2.087938         1.055230
 H         3.741149         0.783078         1.959148
 H         5.182250        -0.624562         0.102122
 H         3.754585         0.767285        -1.587615
 H         3.969436        -1.080906        -1.941078
 H         1.864591        -1.045365         2.087437
