19
Iteration:  2640charge 0 multiplicity 1
 C        -0.025620        -0.094871        -0.119457
 C         1.567428         0.032641        -0.011123
 C         2.223963         1.325488         0.484023
 C         3.373003         0.364289         1.017843
 C         4.019138        -0.534362         0.037475
 C         3.464827        -0.384369        -1.332447
 O         2.052225        -0.333299        -1.250343
 O         3.346712        -1.687767         0.627907
 C         2.401483        -0.745126         1.106985
 H        -0.559382         0.414616         0.792993
 H        -0.353385         0.361776        -0.997690
 H        -0.419714        -1.160772        -0.252237
 H         2.315682         2.072759        -0.282161
 H         1.564781         1.881222         1.195666
 H         3.891774         0.645152         1.931729
 H         5.078648        -0.529409         0.080151
 H         3.787877         0.421802        -1.999850
 H         3.585504        -1.292221        -1.930027
 H         1.903679        -0.961382         2.028456
