19
Iteration:  1613
 C         0.011993        -0.093075         0.013818
 C         1.567358        -0.034924        -0.034120
 C         2.260410         1.317841         0.337036
 C         3.309311         0.480562         1.102634
 C         3.999463        -0.479929         0.083333
 C         3.539105        -0.259379        -1.334553
 O         2.068860        -0.472889        -1.418913
 O         3.240408        -1.730868         0.624919
 C         2.366226        -0.748073         1.175758
 H        -0.269966         0.495942         0.876421
 H        -0.558481         0.265677        -0.852932
 H        -0.226791        -1.176591         0.178433
 H         2.770016         2.048376        -0.422925
 H         1.581131         1.828723         1.069507
 H         3.781932         0.941709         2.009258
 H         5.107246        -0.733724         0.184287
 H         3.861062         0.612484        -1.823651
 H         3.984020        -1.145200        -1.937999
 H         1.835420        -0.997534         2.096026
