19
Iteration:   585
 C         0.091375        -0.079791         0.031342
 C         1.577201         0.017405        -0.029860
 C         2.174344         1.344018         0.353084
 C         3.274206         0.437341         1.138616
 C         4.013984        -0.541104         0.119009
 C         3.497088        -0.334293        -1.337592
 O         2.060528        -0.433929        -1.325536
 O         3.383150        -1.688217         0.554725
 C         2.309304        -0.758035         1.069797
 H        -0.207943         0.197012         1.012332
 H        -0.387547         0.560577        -0.696421
 H        -0.225768        -1.114482        -0.125845
 H         2.437274         2.041916        -0.521701
 H         1.393614         1.772680         1.023716
 H         3.775193         0.659669         2.112659
 H         5.075979        -0.601551        -0.086416
 H         3.889464         0.725363        -1.726974
 H         3.701010        -1.117284        -1.944046
 H         1.667365        -1.117884         1.955294
