19
Iteration:  3314charge 0 multiplicity 1
 C         0.033046        -0.082348        -0.006264
 C         1.563981        -0.044508        -0.051037
 C         2.267278         1.323441         0.333020
 C         3.294976         0.491659         1.075218
 C         4.010069        -0.458756         0.122884
 C         3.479014        -0.334944        -1.328385
 O         2.012649        -0.434708        -1.320820
 O         3.322979        -1.718918         0.562984
 C         2.380663        -0.805806         1.173332
 H        -0.341228        -0.286944         1.066448
 H        -0.646377         0.896655        -0.341017
 H        -0.384164        -0.773533        -0.720066
 H         2.716696         1.951322        -0.399488
 H         1.697523         1.934397         1.007990
 H         3.950129         1.077112         1.774957
 H         5.046758        -0.527508         0.102549
 H         3.732813         0.637642        -1.704522
 H         3.958515        -1.198112        -1.798002
 H         2.012484        -1.243421         2.113158
