19
Iteration:   768
 C         0.003787        -0.224768        -0.124248
 C         1.501136         0.021961         0.050181
 C         2.256693         1.375545         0.427398
 C         3.368905         0.527500         1.009458
 C         4.017249        -0.590675         0.034327
 C         3.523448        -0.322826        -1.370535
 O         2.059158        -0.394662        -1.272467
 O         3.252886        -1.695160         0.649101
 C         2.390433        -0.685379         1.160336
 H        -0.647598        -0.009555         0.711596
 H        -0.275899         0.192345        -1.144402
 H        -0.238980        -1.336783        -0.126147
 H         2.360292         2.063158        -0.341261
 H         1.766116         1.952108         1.227252
 H         3.984762         0.907049         1.856849
 H         5.115778        -0.911004         0.000555
 H         3.930818         0.708215        -1.846114
 H         3.763460        -1.330270        -1.904454
 H         1.969996        -0.930788         2.104818
