19
Iteration:  2416charge 0 multiplicity 1
 C        -0.063854        -0.121597        -0.068880
 C         1.530789         0.000133        -0.015680
 C         2.250328         1.396824         0.455208
 C         3.311774         0.461092         1.072762
 C         4.052009        -0.548197         0.018106
 C         3.483495        -0.411625        -1.398114
 O         2.032039        -0.345330        -1.357310
 O         3.367414        -1.714273         0.705392
 C         2.373334        -0.769036         1.189060
 H        -0.651642        -0.152484         0.791993
 H        -0.243745         0.906966        -0.568852
 H        -0.168090        -1.033332        -0.633868
 H         2.732454         1.750413        -0.483383
 H         1.656112         1.962995         1.157181
 H         4.008224         0.911152         1.820601
 H         5.144258        -0.647540        -0.014344
 H         3.719917         0.511485        -1.939851
 H         3.790791        -1.222342        -2.024842
 H         1.827936        -1.045237         2.106222
