19
Iteration:  2240
 C         0.034680        -0.190744        -0.017811
 C         1.566800        -0.032718        -0.063496
 C         2.335385         1.319230         0.368560
 C         3.350472         0.421013         1.065539
 C         3.973960        -0.521816         0.065277
 C         3.491726        -0.359611        -1.315287
 O         1.958322        -0.316305        -1.343578
 O         3.274639        -1.702051         0.666394
 C         2.426789        -0.701194         1.162588
 H        -0.455253        -0.321244         0.965378
 H        -0.323554         0.685142        -0.543824
 H        -0.383270        -0.880627        -0.782438
 H         2.609368         2.108874        -0.475960
 H         1.678005         2.052013         0.908387
 H         3.937089         0.739664         1.932429
 H         5.075554        -0.769501         0.167705
 H         3.813736         0.672045        -1.724769
 H         3.739895        -1.159236        -2.058958
 H         1.884455        -0.964746         2.070161
