19
Iteration:  1477charge 0 multiplicity 1
 C         0.117791        -0.179686        -0.019656
 C         1.582758         0.044735        -0.081879
 C         2.309608         1.370467         0.357769
 C         3.335008         0.437653         1.060606
 C         3.929970        -0.588161         0.073534
 C         3.421964        -0.207397        -1.343976
 O         2.072702        -0.502107        -1.315915
 O         3.236620        -1.686759         0.644070
 C         2.359622        -0.733729         1.174600
 H        -0.331824         0.414061         0.816616
 H        -0.355818         0.211598        -0.927879
 H        -0.080613        -1.248130        -0.012464
 H         2.752669         2.009419        -0.366193
 H         1.728908         2.074342         1.064963
 H         3.841745         0.897741         1.888944
 H         4.980137        -0.798737         0.058336
 H         3.735258         0.720621        -1.591626
 H         3.846459        -0.905916        -2.097543
 H         1.713773        -1.005091         2.068926
