19
Iteration:  2952charge 0 multiplicity 1
 C         0.067426        -0.200406        -0.047149
 C         1.543948         0.061277        -0.035050
 C         2.270172         1.322839         0.459447
 C         3.331377         0.453640         1.074812
 C         4.020394        -0.532672         0.027716
 C         3.468477        -0.331210        -1.422570
 O         2.070306        -0.413787        -1.328056
 O         3.240519        -1.651718         0.578876
 C         2.340313        -0.750778         1.226996
 H        -0.229265        -0.089295         0.934191
 H        -0.451744         0.690330        -0.522033
 H        -0.190908        -1.157636        -0.362538
 H         2.645103         1.997774        -0.353092
 H         1.596807         1.899398         1.133211
 H         4.019616         0.784719         1.875906
 H         5.126218        -0.639998         0.328351
 H         3.825133         0.644895        -1.674869
 H         3.968631        -1.117270        -2.021541
 H         1.671401        -1.157042         2.038941
