19
Iteration:  2922
 C        -0.004966        -0.025868        -0.123673
 C         1.519666        -0.007784        -0.009815
 C         2.220510         1.270477         0.390763
 C         3.329675         0.451100         0.995843
 C         4.084885        -0.521537         0.082159
 C         3.415411        -0.304334        -1.278663
 O         2.023486        -0.455745        -1.255164
 O         3.400073        -1.723185         0.606336
 C         2.380114        -0.788010         1.145722
 H        -0.370724        -0.017232         0.920095
 H        -0.220830         1.029314        -0.543969
 H        -0.502985        -0.842184        -0.605295
 H         2.454161         2.010724        -0.392456
 H         1.651634         1.897728         1.120909
 H         3.836380         0.813668         1.901492
 H         5.221100        -0.578136         0.167290
 H         3.659122         0.805623        -1.694085
 H         3.820018        -0.884910        -2.118215
 H         1.797280        -1.190212         2.003339
