19
Iteration:  2002
 C         0.079310        -0.062946        -0.025981
 C         1.579463        -0.031854        -0.029595
 C         2.256976         1.305545         0.422879
 C         3.303590         0.406060         1.109797
 C         4.021499        -0.518996         0.072475
 C         3.480907        -0.330549        -1.413968
 O         1.968186        -0.441048        -1.336079
 O         3.358960        -1.647260         0.626422
 C         2.347613        -0.756892         1.129392
 H        -0.292469         0.403229         0.872585
 H        -0.270258         0.506127        -0.970021
 H        -0.365864        -1.080967        -0.133165
 H         2.412695         2.001871        -0.376234
 H         1.756958         1.956051         1.205488
 H         3.810645         0.750182         2.078648
 H         5.085179        -0.604008         0.073443
 H         3.657374         0.716765        -1.672734
 H         3.838143        -1.087362        -2.090243
 H         1.764786        -1.197225         1.990206
