19
Iteration:   348
 C         0.134579        -0.176362         0.070673
 C         1.556525        -0.013492        -0.024047
 C         2.255718         1.355595         0.346654
 C         3.261179         0.429284         1.058017
 C         4.003314        -0.514859         0.071228
 C         3.548197        -0.257997        -1.369148
 O         2.054983        -0.432962        -1.351141
 O         3.283584        -1.691952         0.633828
 C         2.249380        -0.730249         1.101634
 H        -0.125150        -0.110653         1.116551
 H        -0.406281         0.611234        -0.435416
 H        -0.211996        -1.209892        -0.108373
 H         2.409776         1.976738        -0.495356
 H         1.761307         1.943096         1.044866
 H         3.803715         0.770575         1.881104
 H         5.064030        -0.674571         0.099322
 H         3.889335         0.747473        -1.770754
 H         3.995297        -1.044259        -2.079001
 H         1.756392        -1.035794         1.965560
