19
Iteration:  1537charge 0 multiplicity 1
 C         0.014680        -0.074819        -0.085639
 C         1.554998         0.004879        -0.023330
 C         2.131030         1.319209         0.446001
 C         3.332491         0.447467         1.018829
 C         4.060533        -0.493215         0.000813
 C         3.458600        -0.475877        -1.433550
 O         2.045223        -0.311230        -1.309120
 O         3.386244        -1.693123         0.797841
 C         2.397678        -0.773418         1.138185
 H        -0.612690        -0.160320         0.762300
 H        -0.134378         0.838538        -0.636569
 H        -0.345678        -0.855982        -0.780408
 H         2.331238         2.167371        -0.324127
 H         1.637213         1.724625         1.333545
 H         3.902114         0.753093         1.925690
 H         5.178728        -0.622677         0.128861
 H         3.912102         0.308848        -2.167356
 H         3.472380        -1.434634        -1.999490
 H         1.822426        -1.017855         2.013794
