19
Iteration:  3580
 C         0.030616        -0.272772        -0.012995
 C         1.590272         0.051792        -0.068328
 C         2.303097         1.335611         0.403021
 C         3.370550         0.423924         1.058430
 C         3.971788        -0.542734         0.051117
 C         3.504020        -0.319328        -1.399991
 O         2.025306        -0.309088        -1.334213
 O         3.221396        -1.661515         0.634379
 C         2.333446        -0.698370         1.192940
 H        -0.578800         0.277552         0.722287
 H        -0.519246        -0.296177        -0.920403
 H        -0.021885        -1.351330         0.372791
 H         2.632595         2.224998        -0.135703
 H         1.817108         1.752235         1.266466
 H         4.082949         0.674634         1.867010
 H         5.024017        -0.881736         0.065543
 H         4.102149         0.490630        -1.929417
 H         4.038632        -1.052066        -2.065054
 H         1.686301        -0.958229         2.064782
