19
Iteration:  1251charge 0 multiplicity 1
 C         0.053583        -0.170929        -0.060471
 C         1.578860         0.055798        -0.059002
 C         2.245694         1.332573         0.408945
 C         3.386033         0.422001         1.044181
 C         4.081378        -0.562153         0.068439
 C         3.431610        -0.298200        -1.309394
 O         2.046758        -0.489941        -1.271824
 O         3.237933        -1.699064         0.594192
 C         2.312848        -0.636349         1.149555
 H        -0.567214         0.287717         0.766788
 H        -0.107529         0.300644        -1.182334
 H        -0.208724        -1.285038         0.075377
 H         2.483319         2.147494        -0.256415
 H         1.775418         1.889162         1.236303
 H         4.015705         0.891196         1.856732
 H         5.256146        -0.477616        -0.055239
 H         3.686006         0.732652        -1.671013
 H         3.781630        -1.132407        -1.998650
 H         1.710303        -0.968102         1.969120
