19
Iteration:   481charge 0 multiplicity 1
 C         0.137379        -0.170366         0.120925
 C         1.582468        -0.010040        -0.113896
 C         2.267297         1.347575         0.359652
 C         3.252124         0.467030         1.120108
 C         3.943768        -0.469631         0.132933
 C         3.515483        -0.319434        -1.300771
 O         2.065428        -0.356888        -1.395883
 O         3.305576        -1.728192         0.586617
 C         2.276320        -0.799618         1.056116
 H        -0.061592         0.296937         1.162599
 H        -0.485112         0.416393        -0.593616
 H        -0.123484        -1.244641         0.185089
 H         2.548021         2.035865        -0.408230
 H         1.653603         2.001436         1.055654
 H         3.801682         0.736910         1.966918
 H         5.039773        -0.466351         0.046700
 H         3.872749         0.525250        -1.953770
 H         3.967780        -1.200403        -1.943675
 H         1.613890        -1.206810         1.729875
