19
Iteration:  4586
 C         0.103564        -0.219450        -0.060070
 C         1.593904        -0.046650         0.038155
 C         2.242983         1.381105         0.515142
 C         3.388135         0.475088         1.071373
 C         3.962363        -0.452859        -0.024200
 C         3.459177        -0.343658        -1.451831
 O         2.066910        -0.306493        -1.232742
 O         3.201986        -1.761072         0.544198
 C         2.364454        -0.739095         1.197442
 H        -0.351172        -0.070435        -1.049245
 H        -0.080151        -1.337880         0.018097
 H        -0.350127         0.389475         0.672931
 H         2.440686         2.121281        -0.329121
 H         1.692297         2.009856         1.334911
 H         4.229685         0.885022         1.725756
 H         5.008205        -0.744620         0.139080
 H         3.881779         0.552997        -2.028096
 H         3.643042        -1.313889        -2.101078
 H         1.668721        -0.982075         2.009230
