19
Iteration:  3652charge 0 multiplicity 1
 C         0.057189         0.057846        -0.021105
 C         1.520950        -0.029635        -0.065720
 C         2.290262         1.382250         0.433657
 C         3.259216         0.450335         1.120350
 C         4.070246        -0.465295         0.079466
 C         3.438067        -0.365310        -1.368619
 O         1.943976        -0.611515        -1.317179
 O         3.457308        -1.631548         0.627651
 C         2.328424        -0.774977         1.080677
 H        -0.530504        -0.099088         0.957242
 H        -0.276666         1.037608        -0.599258
 H        -0.298826        -0.736236        -0.626139
 H         2.554657         2.064361        -0.419666
 H         1.367666         1.719869         1.085849
 H         3.916735         0.600449         2.008091
 H         5.191014        -0.550888         0.156903
 H         3.698435         0.550929        -1.807250
 H         3.893450        -1.267086        -1.930453
 H         1.955645        -1.416374         1.908125
