19
Iteration:  4719
 C         0.099224        -0.119689        -0.065033
 C         1.567190         0.014571         0.068820
 C         2.264452         1.272934         0.497693
 C         3.380760         0.382088         1.008761
 C         3.967403        -0.519772         0.030816
 C         3.438718        -0.259965        -1.369441
 O         1.969259        -0.341703        -1.371517
 O         3.340432        -1.758038         0.633141
 C         2.361777        -0.709528         1.164883
 H        -0.118259         0.343023        -1.089086
 H        -0.242446        -1.136985        -0.175017
 H        -0.483652         0.302461         0.662202
 H         2.404323         1.984850        -0.328604
 H         1.598997         1.624355         1.329590
 H         3.983265         0.669607         1.808641
 H         5.033254        -0.458793         0.159370
 H         3.763112         0.716754        -1.717751
 H         3.802600        -1.059771        -2.083405
 H         1.811927        -1.038392         2.015918
