19
Iteration:  3331
 C         0.052306         0.021360        -0.017198
 C         1.512846        -0.032711        -0.009902
 C         2.219753         1.296533         0.400661
 C         3.275312         0.428997         1.123735
 C         4.044959        -0.508106        -0.020726
 C         3.443734        -0.279071        -1.424031
 O         2.061417        -0.530895        -1.320694
 O         3.398233        -1.668538         0.686260
 C         2.350633        -0.772923         1.131668
 H        -0.366400        -0.025893         0.946572
 H        -0.230713         0.901668        -0.450036
 H        -0.409026        -0.910854        -0.493973
 H         2.413598         1.885049        -0.557628
 H         1.512153         1.849704         1.079218
 H         3.937441         0.629687         1.987873
 H         5.193998        -0.483462         0.144702
 H         3.876819         0.790335        -1.643886
 H         3.758340        -1.058453        -2.141801
 H         1.631198        -1.161656         1.875604
