19
Iteration:  3896
 C         0.073797        -0.164261        -0.015734
 C         1.542896         0.067027         0.019054
 C         2.306196         1.364685         0.462462
 C         3.311340         0.440963         1.109063
 C         4.022930        -0.509692         0.092309
 C         3.442268        -0.375758        -1.383471
 O         2.017001        -0.369900        -1.361291
 O         3.339851        -1.667753         0.553568
 C         2.302218        -0.807729         1.093097
 H        -0.365432        -0.009769        -0.944936
 H        -0.113340        -1.117770         0.354600
 H        -0.402810         0.536289         0.714321
 H         2.658333         2.184773        -0.205577
 H         1.774003         1.848129         1.351718
 H         3.874345         0.692137         1.933865
 H         5.064150        -0.642439        -0.005885
 H         3.791134         0.612457        -1.883214
 H         3.775038        -1.305197        -1.939365
 H         1.677101        -1.295994         1.827101
