19
Iteration:   160
 C        -0.021112        -0.082254        -0.116589
 C         1.517795        -0.096996         0.009562
 C         2.202477         1.278550         0.454329
 C         3.372827         0.478634         1.092258
 C         4.045707        -0.472150         0.045827
 C         3.461269        -0.483610        -1.380777
 O         1.997538        -0.284518        -1.368969
 O         3.430952        -1.590034         0.637357
 C         2.394246        -0.751244         1.201782
 H        -0.514568         0.203896         0.828853
 H        -0.444032         0.470649        -0.986003
 H        -0.457626        -1.207887        -0.402515
 H         2.350567         2.278151        -0.285947
 H         1.551370         1.531501         1.387168
 H         4.072206         0.656612         2.008419
 H         5.143106        -0.632276         0.052183
 H         3.937822         0.317186        -2.013321
 H         3.467514        -1.615642        -1.718170
 H         1.827890        -1.369011         1.962551
