19
Iteration:  3779
 C        -0.036807         0.047682         0.003726
 C         1.497511        -0.012736        -0.020901
 C         2.164773         1.379941         0.383974
 C         3.295912         0.444620         1.026692
 C         4.036341        -0.543062         0.065415
 C         3.532204        -0.357890        -1.338632
 O         2.010893        -0.501449        -1.282061
 O         3.445814        -1.711791         0.622108
 C         2.411532        -0.818523         1.076759
 H        -0.337069         0.975506         0.463204
 H        -0.512375        -0.045206        -0.947639
 H        -0.507786        -0.826091         0.622704
 H         2.491589         2.009209        -0.433379
 H         1.570465         2.018544         0.988140
 H         3.962846         1.017450         1.721659
 H         5.101246        -0.708630         0.256500
 H         3.894837         0.719981        -1.479282
 H         3.850397        -1.049536        -2.060910
 H         1.827099        -1.308557         1.867892
