19
Iteration:  2439charge 0 multiplicity 1
 C         0.106593        -0.021619        -0.002551
 C         1.597491         0.026037        -0.117394
 C         2.229080         1.290062         0.391948
 C         3.307153         0.452389         1.068697
 C         3.993316        -0.473238         0.067781
 C         3.462392        -0.373135        -1.314634
 O         2.043385        -0.473955        -1.286283
 O         3.303251        -1.668775         0.624905
 C         2.346754        -0.776448         1.101145
 H        -0.245246         0.103481         0.955561
 H        -0.307533         0.894052        -0.594217
 H        -0.179826        -0.995341        -0.336796
 H         2.382412         2.039450        -0.424546
 H         1.423881         1.469349         1.099684
 H         3.946036         0.615351         1.981448
 H         5.056221        -0.552156         0.073832
 H         3.598091         0.553935        -1.847600
 H         3.846233        -1.156663        -1.906386
 H         1.884264        -1.097569         2.044860
