19
Iteration:  2374charge 0 multiplicity 1
 C         0.068955        -0.162263        -0.031545
 C         1.580362         0.003564         0.035468
 C         2.186605         1.413137         0.464466
 C         3.353823         0.504209         1.057816
 C         3.983721        -0.544119        -0.003775
 C         3.508507        -0.407850        -1.430884
 O         2.047924        -0.396832        -1.327944
 O         3.224871        -1.717095         0.654931
 C         2.428577        -0.711611         1.133699
 H        -0.460077        -0.035263         0.833077
 H        -0.234252         0.629394        -0.831271
 H        -0.142722        -1.104040        -0.547884
 H         2.480543         2.159572        -0.350149
 H         1.484322         1.826682         1.299508
 H         4.100146         0.717369         1.924254
 H         5.004193        -0.648933         0.201656
 H         4.015098         0.502513        -1.681306
 H         3.707181        -1.270565        -1.979462
 H         1.814636        -1.014663         2.001599
