19
Iteration:  4279
 C         0.035286        -0.167000        -0.061520
 C         1.494057         0.037179         0.037412
 C         2.212389         1.328762         0.447965
 C         3.406026         0.424218         1.021584
 C         4.021890        -0.560695        -0.009829
 C         3.458012        -0.244644        -1.446198
 O         2.065183        -0.383114        -1.293817
 O         3.283218        -1.729870         0.676670
 C         2.388923        -0.735803         1.172910
 H        -0.348031         0.570552        -0.731731
 H        -0.133342        -1.116114        -0.585265
 H        -0.406598        -0.019680         0.934128
 H         2.500441         2.086771        -0.248292
 H         1.533639         1.734684         1.208072
 H         4.127994         0.588333         1.847950
 H         5.094895        -0.733413         0.153073
 H         3.744870         0.788981        -1.682074
 H         3.679218        -0.994090        -2.296591
 H         1.895610        -1.003454         2.133725
