19
Iteration:  1317
 C         0.000109        -0.083107        -0.111707
 C         1.489117         0.009213        -0.072031
 C         2.229115         1.351554         0.450749
 C         3.297940         0.459960         1.083447
 C         4.078046        -0.542026         0.033391
 C         3.438287        -0.445560        -1.337361
 O         2.002961        -0.394699        -1.324568
 O         3.443605        -1.701464         0.695920
 C         2.375410        -0.719848         1.129277
 H        -0.375468         0.128018         0.979169
 H        -0.440630         0.857686        -0.743364
 H        -0.434908        -1.063853        -0.506066
 H         2.515537         2.109981        -0.298344
 H         1.663327         1.937876         1.205015
 H         4.017095         0.843278         1.882597
 H         5.243955        -0.531879         0.125639
 H         3.863712         0.366016        -1.862831
 H         3.639274        -1.349960        -1.962727
 H         1.732195        -1.043989         1.936311
