19
Iteration:  3126
 C         0.014054        -0.229224        -0.118119
 C         1.633266         0.003659        -0.037656
 C         2.235169         1.382404         0.509454
 C         3.379751         0.543243         1.099835
 C         4.031697        -0.544270        -0.014167
 C         3.407736        -0.494285        -1.379135
 O         2.065576        -0.308997        -1.283390
 O         3.263876        -1.686464         0.636154
 C         2.366864        -0.681708         1.157324
 H        -0.096897        -0.400674         0.896809
 H        -0.553208         0.752261        -0.459030
 H        -0.198885        -1.028627        -0.858324
 H         2.277252         2.025760        -0.355536
 H         1.463705         1.723346         1.137269
 H         4.004756         0.855909         2.025298
 H         5.065905        -0.590138        -0.061596
 H         3.963346         0.483929        -1.828381
 H         3.712035        -1.444651        -1.924666
 H         1.732376        -1.122203         1.980875
