19
Iteration:  3193
 C         0.105727        -0.033577        -0.007729
 C         1.520771        -0.048402         0.007694
 C         2.255992         1.322392         0.350231
 C         3.250941         0.409565         1.156614
 C         4.023816        -0.467397         0.043708
 C         3.530011        -0.291159        -1.401495
 O         2.045243        -0.531214        -1.365877
 O         3.350141        -1.655175         0.619269
 C         2.296482        -0.811709         1.137475
 H        -0.243256         0.727669         0.716313
 H        -0.458102         0.395697        -1.037406
 H        -0.350845        -0.966405         0.328036
 H         2.427028         2.113878        -0.356623
 H         1.716046         1.703314         1.179620
 H         4.015073         0.877952         1.934458
 H         5.062844        -0.499399         0.155827
 H         3.590536         0.859020        -1.426707
 H         3.773831        -0.975833        -2.287971
 H         1.801118        -1.140676         2.102782
