19
Iteration:  3794
 C        -0.039558         0.022806        -0.003058
 C         1.523860        -0.033206        -0.074256
 C         2.260191         1.281896         0.379752
 C         3.339814         0.471820         1.107420
 C         4.092356        -0.500943         0.063042
 C         3.410791        -0.263639        -1.342049
 O         2.052971        -0.571848        -1.321897
 O         3.371481        -1.690549         0.627699
 C         2.376705        -0.767359         1.133745
 H        -0.345532         1.080323         0.295944
 H        -0.431920        -0.120359        -1.077170
 H        -0.465868        -0.590854         0.678533
 H         2.552887         1.939322        -0.436697
 H         1.673828         1.700607         1.211140
 H         3.843095         0.636154         2.097449
 H         5.205345        -0.468356        -0.051293
 H         3.472310         0.732887        -1.942878
 H         3.849726        -1.039522        -2.075347
 H         1.752306        -1.137347         2.037706
