19
Iteration:    72charge 0 multiplicity 1
 C         0.103190        -0.165940        -0.102831
 C         1.500487         0.057750         0.022736
 C         2.181067         1.335882         0.460889
 C         3.339158         0.496204         0.999275
 C         4.016317        -0.574593         0.037266
 C         3.431464        -0.404129        -1.330434
 O         2.003331        -0.382648        -1.243779
 O         3.373930        -1.665495         0.631431
 C         2.387435        -0.747304         1.092622
 H        -0.377113        -0.151983         0.917623
 H        -0.306413         0.580907        -0.832635
 H         0.058987        -1.233357        -0.589793
 H         2.429179         2.177213        -0.412450
 H         1.770588         1.952775         1.338921
 H         3.978968         0.872027         1.849028
 H         5.114448        -0.572308         0.154342
 H         3.872325         0.604811        -1.736270
 H         3.674136        -1.230012        -2.129663
 H         1.700249        -1.124030         1.892796
