19
Iteration:  1614charge 0 multiplicity 1
 C         0.011961        -0.099091         0.009402
 C         1.574970        -0.037993        -0.036759
 C         2.256738         1.322330         0.339895
 C         3.314232         0.491891         1.099321
 C         4.000882        -0.480519         0.086235
 C         3.536205        -0.261004        -1.338808
 O         2.064453        -0.467070        -1.418000
 O         3.249199        -1.739414         0.626487
 C         2.351228        -0.751428         1.177899
 H        -0.245007         0.545470         0.882461
 H        -0.554629         0.251801        -0.821138
 H        -0.198127        -1.183076         0.172197
 H         2.776360         2.068045        -0.418719
 H         1.616979         1.824004         1.087750
 H         3.749440         0.944423         1.999999
 H         5.093305        -0.747576         0.176569
 H         3.884721         0.574070        -1.803599
 H         3.951546        -1.127524        -1.932246
 H         1.812556        -0.980364         2.073856
