19
Iteration:   794charge 0 multiplicity 1
 C         0.070585        -0.197452        -0.229170
 C         1.547235        -0.024333        -0.037803
 C         2.238020         1.350347         0.499681
 C         3.354242         0.495118         1.027397
 C         3.994063        -0.586634         0.018113
 C         3.400010        -0.368376        -1.412887
 O         2.004238        -0.393219        -1.265697
 O         3.338632        -1.654872         0.711071
 C         2.433961        -0.673026         1.246723
 H        -0.557453         0.273480         0.546201
 H        -0.098935         0.350707        -1.125129
 H        -0.253959        -1.199185        -0.420702
 H         2.453257         2.250657        -0.174029
 H         1.630946         1.649103         1.316873
 H         4.056018         0.788532         1.765864
 H         5.007602        -0.652211         0.035487
 H         3.761219         0.607600        -1.819824
 H         3.580415        -1.251963        -2.072364
 H         1.940772        -0.915001         2.287244
