19
Iteration:  2687charge 0 multiplicity 1
 C         0.127908        -0.200224        -0.009856
 C         1.562381         0.012170        -0.007954
 C         2.250891         1.290800         0.361192
 C         3.375033         0.432052         1.087062
 C         4.028946        -0.536872         0.011283
 C         3.505654        -0.308266        -1.334987
 O         2.064665        -0.287987        -1.322496
 O         3.194264        -1.757524         0.593298
 C         2.291123        -0.676981         1.162533
 H        -0.271059         0.132723         1.016768
 H        -0.532613         0.286490        -0.750071
 H        -0.197482        -1.322639        -0.107484
 H         2.527659         2.205569        -0.242263
 H         1.670121         1.843924         1.133238
 H         3.905579         0.736978         2.004190
 H         5.191070        -0.628266         0.074722
 H         3.764246         0.557720        -1.902805
 H         3.832084        -1.164769        -2.044161
 H         1.725566        -0.989937         2.055105
