19
Iteration:   374charge 0 multiplicity 1
 C        -0.008531        -0.073586         0.038307
 C         1.516177         0.028788        -0.087569
 C         2.213144         1.324543         0.333400
 C         3.275480         0.438397         1.132214
 C         4.053826        -0.498816         0.105582
 C         3.519059        -0.358984        -1.324114
 O         2.026089        -0.396213        -1.384932
 O         3.433161        -1.726151         0.619864
 C         2.340893        -0.771090         1.111889
 H        -0.224745        -0.200448         1.123750
 H        -0.562608         0.797896        -0.311141
 H        -0.418762        -0.990971        -0.261617
 H         2.399191         2.085041        -0.443455
 H         1.414635         1.926569         0.951050
 H         3.932635         0.783192         1.952168
 H         5.187771        -0.573147        -0.006630
 H         3.892114         0.500374        -1.846958
 H         3.836406        -1.189591        -1.830371
 H         1.741967        -1.173663         1.997983
