19
Iteration:   112charge 0 multiplicity 1
 C         0.062934        -0.161261         0.058793
 C         1.554626        -0.007531        -0.032008
 C         2.253251         1.264559         0.376980
 C         3.329522         0.493304         1.102053
 C         4.011642        -0.548151         0.072227
 C         3.483733        -0.225182        -1.326927
 O         2.061410        -0.510846        -1.385074
 O         3.280246        -1.621390         0.577026
 C         2.341232        -0.730596         1.143316
 H        -0.376041         0.426984         0.944735
 H        -0.345274         0.288671        -0.890909
 H        -0.310170        -1.089138         0.053861
 H         2.529168         1.833157        -0.456616
 H         1.699298         1.849340         1.006497
 H         3.859838         0.918004         1.889213
 H         5.054616        -0.771710         0.031130
 H         3.654336         0.792268        -1.454119
 H         3.969019        -0.857316        -2.080312
 H         1.818366        -1.219349         1.953953
