19
Iteration:   614charge 0 multiplicity 1
 C        -0.014885        -0.178365         0.092254
 C         1.516053         0.006928        -0.090032
 C         2.290324         1.309727         0.315214
 C         3.301359         0.449125         1.116130
 C         4.036872        -0.488704         0.107729
 C         3.615806        -0.308137        -1.379367
 O         2.055496        -0.311034        -1.415023
 O         3.313587        -1.713225         0.634343
 C         2.264841        -0.795034         1.141038
 H        -0.234630         0.365951         1.097748
 H        -0.850361         0.286443        -0.544177
 H        -0.196172        -1.313990         0.163524
 H         2.607306         1.989057        -0.471374
 H         1.572308         1.690364         1.159607
 H         3.841410         0.891241         2.047612
 H         5.222932        -0.512308         0.098877
 H         3.987163         0.573324        -1.744774
 H         3.816443        -1.323472        -2.152080
 H         1.668002        -1.121934         1.997974
