19
Iteration:  2395charge 0 multiplicity 1
 C        -0.024662        -0.149686        -0.187807
 C         1.493708         0.054449         0.014001
 C         2.238910         1.325606         0.399198
 C         3.395261         0.423198         0.999117
 C         4.038287        -0.587771         0.050700
 C         3.440886        -0.401845        -1.329841
 O         2.006613        -0.310512        -1.255203
 O         3.372501        -1.680990         0.673334
 C         2.382224        -0.697945         1.144517
 H        -0.229810        -0.216504         0.805764
 H        -0.670437         0.747643        -0.588885
 H        -0.081579        -1.163606        -0.527221
 H         2.466691         2.066812        -0.434591
 H         1.988028         1.592472         1.436334
 H         3.919433         0.848525         1.917505
 H         5.109489        -0.651118         0.015195
 H         3.958889         0.423640        -1.764864
 H         3.560225        -1.306911        -1.851716
 H         1.799530        -0.984306         2.028711
