19
Iteration:  4249
 C         0.024015         0.017584        -0.077048
 C         1.526092        -0.038587         0.023652
 C         2.212042         1.304430         0.435638
 C         3.364992         0.434136         1.092032
 C         4.045284        -0.417705         0.029307
 C         3.392596        -0.347560        -1.337585
 O         2.020594        -0.566613        -1.266044
 O         3.370881        -1.650268         0.563852
 C         2.390343        -0.772805         1.099033
 H        -0.099677         1.115097        -0.372536
 H        -0.485647        -0.668687        -0.893839
 H        -0.500808        -0.237554         0.819096
 H         2.495082         2.060405        -0.290729
 H         1.550171         1.799723         1.147567
 H         4.060506         0.442837         2.018644
 H         5.170097        -0.550869         0.167082
 H         3.690581         0.718163        -1.745600
 H         3.896813        -1.047910        -2.029980
 H         1.957323        -1.240955         2.039422
