19
Iteration:  1237charge 0 multiplicity 1
 C         0.122779        -0.202009        -0.075133
 C         1.554307        -0.010212         0.021643
 C         2.319603         1.374658         0.354974
 C         3.349733         0.503810         1.090286
 C         3.957391        -0.570851         0.045849
 C         3.480936        -0.237714        -1.377460
 O         2.058309        -0.477870        -1.264671
 O         3.180317        -1.686266         0.603774
 C         2.382506        -0.696893         1.165712
 H        -0.305898         0.202296         0.833407
 H        -0.508835         0.231570        -1.013793
 H        -0.109354        -1.305000        -0.100093
 H         2.618924         1.908281        -0.516201
 H         1.633615         1.978675         1.016081
 H         3.929882         0.755699         1.901190
 H         4.966005        -0.955284         0.204028
 H         3.706417         0.752506        -1.558117
 H         3.859702        -0.855965        -2.220734
 H         1.845309        -0.936881         2.124476
