19
Iteration:   577charge 0 multiplicity 1
 C         0.045971        -0.054318        -0.079078
 C         1.557571         0.021087        -0.040254
 C         2.228543         1.324051         0.393970
 C         3.286051         0.460126         1.126278
 C         4.088750        -0.496340         0.068194
 C         3.487514        -0.350423        -1.326995
 O         1.985681        -0.466405        -1.262605
 O         3.370016        -1.693179         0.576013
 C         2.333327        -0.775173         1.093643
 H        -0.265063         0.053646         0.984931
 H        -0.480388         0.609758        -0.738333
 H        -0.171121        -1.087740        -0.262145
 H         2.382626         2.172422        -0.256991
 H         1.590137         1.698829         1.101683
 H         3.765889         0.840379         1.963315
 H         5.152393        -0.649278         0.070101
 H         3.829256         0.703450        -1.686876
 H         3.853036        -1.022984        -2.107248
 H         1.783306        -1.236166         1.891845
