19
Iteration:   456
 C         0.011433        -0.158826        -0.016196
 C         1.507572         0.009031        -0.022929
 C         2.243576         1.348956         0.398797
 C         3.332297         0.456777         1.082180
 C         4.050310        -0.586048         0.098909
 C         3.491543        -0.227925        -1.372138
 O         2.077479        -0.396742        -1.322673
 O         3.305870        -1.695487         0.605158
 C         2.345610        -0.765958         1.123499
 H        -0.353372         0.340974         0.901420
 H        -0.525362         0.256172        -0.883141
 H        -0.189799        -1.272842        -0.006586
 H         2.562630         1.908445        -0.535971
 H         1.715991         1.921483         1.112582
 H         3.881220         0.784979         1.974425
 H         5.101803        -0.775773         0.121784
 H         3.718212         0.676347        -1.786572
 H         3.849461        -1.030037        -2.120981
 H         1.781201        -1.165004         2.002559
