19
Iteration:  1279charge 0 multiplicity 1
 C        -0.040696        -0.031006        -0.109795
 C         1.542536        -0.033445        -0.058433
 C         2.127859         1.341891         0.529648
 C         3.271102         0.476617         1.089559
 C         4.048723        -0.540137         0.034979
 C         3.491524        -0.496082        -1.447895
 O         2.055527        -0.352660        -1.322438
 O         3.432692        -1.686043         0.670054
 C         2.426371        -0.756731         1.169353
 H        -0.342717         0.608831         0.658958
 H        -0.297337         0.356001        -1.054533
 H        -0.582138        -0.921970         0.096404
 H         2.552405         1.944928        -0.307218
 H         1.569250         2.007362         1.249685
 H         3.864005         0.804935         1.910874
 H         5.092190        -0.461281         0.045033
 H         3.852671         0.403002        -2.057974
 H         3.620390        -1.481374        -1.910483
 H         1.918007        -1.096192         2.124291
