19
Iteration:  2342
 C        -0.008658        -0.078549         0.034194
 C         1.533412         0.013924        -0.056947
 C         2.275194         1.306183         0.324740
 C         3.347091         0.443036         1.069737
 C         4.077284        -0.535941         0.105181
 C         3.486415        -0.328482        -1.284755
 O         2.007742        -0.453804        -1.296599
 O         3.298303        -1.653128         0.589102
 C         2.366682        -0.763978         1.057593
 H        -0.414386         0.376500         0.868261
 H        -0.445262         0.410202        -0.874846
 H        -0.233627        -1.120033         0.099439
 H         2.626844         2.083335        -0.413177
 H         1.620447         1.810303         1.116457
 H         3.946769         0.800422         2.003014
 H         5.116930        -0.625133         0.195375
 H         3.929914         0.631678        -1.685778
 H         3.751154        -1.042851        -2.031406
 H         1.737283        -1.210181         1.848153
