19
Iteration:  3968
 C        -0.038653        -0.073965        -0.049345
 C         1.510212         0.045627        -0.067674
 C         2.258988         1.325336         0.516345
 C         3.302447         0.401147         1.121903
 C         4.085198        -0.531084         0.000411
 C         3.493488        -0.343322        -1.405799
 O         1.961171        -0.442530        -1.347745
 O         3.386215        -1.661373         0.611646
 C         2.417327        -0.758653         1.164980
 H        -0.385828         0.722163        -0.824364
 H        -0.320568        -1.175634        -0.361953
 H        -0.466654         0.156391         0.906645
 H         2.370038         2.113020        -0.233373
 H         1.771257         1.795758         1.352892
 H         3.821198         0.745789         2.161821
 H         5.240630        -0.532024        -0.049364
 H         3.855445         0.550343        -1.789842
 H         3.799493        -1.212386        -2.003644
 H         1.871725        -1.203253         2.050331
