19
Iteration:  4735charge 0 multiplicity 1
 C         0.009383        -0.247977        -0.068973
 C         1.496845         0.053090        -0.062455
 C         2.275916         1.407966         0.479395
 C         3.359100         0.447450         1.092960
 C         4.026575        -0.612196         0.015173
 C         3.464166        -0.345871        -1.359051
 O         2.046670        -0.239668        -1.291195
 O         3.292898        -1.717150         0.583126
 C         2.384013        -0.784154         1.140269
 H        -0.546902         0.006594        -0.932346
 H        -0.165545        -1.326503         0.203246
 H        -0.573073         0.200713         0.859282
 H         2.646320         2.161747        -0.248597
 H         1.870116         1.943887         1.332951
 H         4.050558         0.857029         1.927215
 H         5.112771        -0.851982        -0.123082
 H         3.893634         0.641389        -1.770930
 H         3.715892        -1.152465        -2.058796
 H         1.832086        -1.105947         2.093673
