19
Iteration:  1580
 C         0.042147        -0.027999        -0.124046
 C         1.509488        -0.009976         0.021059
 C         2.268640         1.358281         0.354893
 C         3.280636         0.474204         1.028077
 C         4.075896        -0.513955         0.066614
 C         3.458853        -0.251847        -1.333803
 O         2.037995        -0.530222        -1.189650
 O         3.335122        -1.738458         0.625566
 C         2.378215        -0.772198         1.093192
 H        -0.432368         0.017428         0.812172
 H        -0.355999         0.719343        -0.827902
 H        -0.332143        -1.043663        -0.400876
 H         2.512534         2.210520        -0.417469
 H         1.598583         1.827798         1.129543
 H         3.782233         0.993359         1.897432
 H         5.212220        -0.692824         0.062719
 H         3.600709         0.606555        -1.806383
 H         3.868416        -1.185092        -1.867065
 H         1.874444        -1.158712         1.979891
