19
Iteration:  2111charge 0 multiplicity 1
 C         0.133284        -0.156324         0.040124
 C         1.574316        -0.017316        -0.021624
 C         2.164050         1.372259         0.388697
 C         3.360636         0.445187         1.052121
 C         3.956846        -0.557368         0.018310
 C         3.576051        -0.312766        -1.349484
 O         2.080153        -0.376339        -1.245648
 O         3.203214        -1.715421         0.559911
 C         2.319844        -0.704435         1.090242
 H        -0.179748         0.308829         0.974617
 H        -0.415792         0.499493        -0.750984
 H        -0.192682        -1.220281         0.150661
 H         2.524169         1.835361        -0.465172
 H         1.471251         1.947234         1.017895
 H         4.096154         0.665999         1.942162
 H         4.995703        -0.649507         0.189400
 H         3.957863         0.651341        -1.880618
 H         3.812151        -1.170108        -2.012866
 H         1.836340        -1.150385         1.988640
