19
Iteration:  2394charge 0 multiplicity 1
 C        -0.014360        -0.151581        -0.190884
 C         1.500264         0.054186         0.007488
 C         2.232572         1.331370         0.409534
 C         3.395642         0.435142         1.001392
 C         4.042646        -0.599106         0.056098
 C         3.435415        -0.404804        -1.316828
 O         2.004075        -0.310984        -1.256061
 O         3.369872        -1.681568         0.665592
 C         2.375731        -0.696213         1.142683
 H        -0.252702        -0.213524         0.829492
 H        -0.629766         0.763102        -0.563852
 H        -0.052226        -1.188650        -0.502093
 H         2.461483         2.048608        -0.432295
 H         1.976831         1.577971         1.418775
 H         3.905196         0.874346         1.875440
 H         5.147723        -0.676741        -0.008574
 H         3.927980         0.431017        -1.810583
 H         3.583515        -1.302735        -1.892762
 H         1.795139        -0.975699         2.025656
