19
Iteration:  4527
 C         0.053156         0.082202         0.020359
 C         1.500145        -0.112374         0.004306
 C         2.161880         1.228116         0.402547
 C         3.277380         0.366925         1.093478
 C         4.066932        -0.473152         0.008036
 C         3.466261        -0.267588        -1.363640
 O         2.023957        -0.419827        -1.309869
 O         3.429623        -1.663370         0.552271
 C         2.369530        -0.860820         1.177116
 H        -0.130243         0.170382        -1.068262
 H        -0.410533        -0.799429         0.482303
 H        -0.348043         1.001447         0.668916
 H         2.400695         1.769334        -0.523081
 H         1.564515         1.802259         1.075961
 H         3.893367         0.798969         1.901235
 H         5.155862        -0.580455        -0.000089
 H         3.764460         0.798827        -1.671368
 H         3.828407        -0.930757        -2.072428
 H         1.746069        -1.186288         2.025833
