19
Iteration:  1582charge 0 multiplicity 1
 C         0.041179        -0.023593        -0.131076
 C         1.517321        -0.022783         0.036044
 C         2.263330         1.357155         0.352652
 C         3.292101         0.473971         1.031135
 C         4.074617        -0.515488         0.060867
 C         3.475523        -0.259511        -1.331264
 O         2.047368        -0.535206        -1.182168
 O         3.337312        -1.722761         0.609462
 C         2.342327        -0.771459         1.096815
 H        -0.419846         0.003695         0.900991
 H        -0.363231         0.658427        -0.806534
 H        -0.366815        -1.035158        -0.312333
 H         2.553171         2.170551        -0.433577
 H         1.648874         1.841410         1.093374
 H         3.722322         1.003699         1.865876
 H         5.167279        -0.715977         0.070774
 H         3.639106         0.680902        -1.825839
 H         3.824580        -1.120204        -1.902452
 H         1.828735        -1.145574         1.939156
