19
Iteration:  1359
 C         0.093200        -0.229371        -0.032810
 C         1.632203        -0.031910        -0.025327
 C         2.257148         1.320794         0.235803
 C         3.405242         0.484015         1.021142
 C         4.027591        -0.548031         0.089726
 C         3.486212        -0.325882        -1.245488
 O         2.040391        -0.411004        -1.231685
 O         3.138304        -1.689991         0.564465
 C         2.333295        -0.658563         1.197240
 H        -0.302178        -0.347909         0.914810
 H        -0.366267         0.823852        -0.259195
 H        -0.340440        -0.900286        -0.782502
 H         2.561388         2.009776        -0.517949
 H         1.567303         1.823706         1.034823
 H         3.963453         0.985355         1.826752
 H         5.131799        -0.791466        -0.141240
 H         3.684373         0.742804        -1.552812
 H         4.065052        -0.878350        -2.066871
 H         1.816625        -0.909589         2.143047
