19
Iteration:  2731
 C         0.050311         0.010557        -0.075553
 C         1.533976        -0.018598        -0.061695
 C         2.283729         1.244802         0.437626
 C         3.307581         0.428545         1.104940
 C         4.074051        -0.446465         0.085664
 C         3.367314        -0.261361        -1.381739
 O         1.999827        -0.475364        -1.295751
 O         3.365124        -1.718177         0.629675
 C         2.410249        -0.799895         1.121632
 H        -0.414151         0.033963         0.930764
 H        -0.373455         0.748942        -0.720956
 H        -0.376652        -0.832574        -0.697047
 H         2.367531         2.050899        -0.366836
 H         1.702600         1.769760         1.225636
 H         3.858647         0.748349         1.991688
 H         5.181907        -0.747114         0.092458
 H         3.747706         0.681785        -1.794224
 H         3.768872        -1.144221        -2.015058
 H         1.836326        -1.028964         2.046391
