19
Iteration:  4937charge 0 multiplicity 1
 C         0.040573        -0.226037        -0.025977
 C         1.510641         0.038249        -0.009842
 C         2.311014         1.367444         0.564230
 C         3.435331         0.483662         1.086598
 C         4.008722        -0.577754         0.035319
 C         3.448401        -0.332293        -1.366876
 O         2.043834        -0.400377        -1.300433
 O         3.263982        -1.676593         0.576528
 C         2.304260        -0.703254         1.030303
 H        -0.454892         0.122335        -1.056557
 H        -0.156156        -1.293398        -0.201831
 H        -0.564996         0.261390         0.704120
 H         2.488295         2.173931        -0.108263
 H         1.896003         1.837331         1.448128
 H         4.069345         0.751036         1.898732
 H         5.070748        -0.752176        -0.113327
 H         3.697339         0.655594        -1.978015
 H         3.960212        -1.095890        -1.914491
 H         1.822252        -0.947930         1.944684
