19
Iteration:  2590charge 0 multiplicity 1
 C        -0.003837        -0.000887        -0.057093
 C         1.514179         0.001415        -0.045900
 C         2.305912         1.332455         0.429343
 C         3.329809         0.393769         1.056395
 C         4.023799        -0.466621         0.061553
 C         3.459745        -0.303772        -1.259124
 O         2.032945        -0.555182        -1.305124
 O         3.391559        -1.720977         0.645767
 C         2.312624        -0.774498         1.056212
 H        -0.242212         0.016427         0.973631
 H        -0.412934         0.867675        -0.640673
 H        -0.424535        -0.819356        -0.614663
 H         2.601482         2.110652        -0.327391
 H         1.823148         1.981960         1.131689
 H         3.800560         0.893620         1.878215
 H         5.134124        -0.612165        -0.194331
 H         3.619063         0.764596        -1.614751
 H         3.738175        -0.932438        -2.112089
 H         1.729791        -0.968008         1.981292
