19
Iteration:  4835charge 0 multiplicity 1
 C         0.026522         0.120046        -0.130267
 C         1.503319        -0.071107         0.062896
 C         2.210387         1.281575         0.472020
 C         3.266240         0.504040         1.151386
 C         4.078609        -0.478837        -0.002163
 C         3.424000        -0.288798        -1.363556
 O         1.997303        -0.544960        -1.293184
 O         3.396200        -1.708232         0.485784
 C         2.484230        -0.843309         1.239340
 H        -0.188446         1.065475        -0.574441
 H        -0.483616        -0.652957        -0.782060
 H        -0.519984        -0.054395         0.834814
 H         2.523570         1.864621        -0.393630
 H         1.537053         1.799318         1.136093
 H         3.739984         0.718443         2.136105
 H         5.185746        -0.507395        -0.041662
 H         3.760789         0.650491        -1.980409
 H         3.827799        -1.162114        -1.850863
 H         1.867215        -1.280556         2.083464
