19
Iteration:  3976
 C        -0.050340        -0.116364         0.005004
 C         1.533285         0.079599        -0.030926
 C         2.248390         1.382960         0.485377
 C         3.261184         0.442553         1.159477
 C         4.082122        -0.546415         0.027419
 C         3.554512        -0.428014        -1.352850
 O         1.964053        -0.401059        -1.334425
 O         3.394320        -1.639450         0.565773
 C         2.398395        -0.809210         1.101649
 H        -0.504196         0.649776        -0.639264
 H        -0.288487        -1.015998        -0.592751
 H        -0.615059        -0.116338         0.912779
 H         2.595285         2.184288        -0.299590
 H         1.524745         1.883620         1.195918
 H         4.086548         0.687643         1.935834
 H         5.199611        -0.685746        -0.148731
 H         3.919659         0.503491        -1.953918
 H         3.655213        -1.231721        -2.026161
 H         1.826402        -1.190401         1.979404
