19
Iteration:   399
 C         0.000745        -0.029053        -0.127783
 C         1.529513        -0.067600         0.017584
 C         2.210078         1.280538         0.505198
 C         3.287422         0.453007         1.052171
 C         4.041981        -0.458442         0.023389
 C         3.430501        -0.418539        -1.383242
 O         2.038055        -0.403307        -1.273650
 O         3.409483        -1.644601         0.655784
 C         2.415165        -0.780223         1.116288
 H        -0.614591         0.015647         0.779944
 H        -0.195702         0.858146        -0.771381
 H        -0.419049        -1.005598        -0.602905
 H         2.496851         2.142631        -0.259167
 H         1.504902         1.852520         1.197970
 H         4.149510         0.843971         1.816927
 H         5.156758        -0.473544         0.019817
 H         3.738139         0.479283        -1.881987
 H         3.733744        -1.308217        -2.033205
 H         1.770125        -1.315866         1.986506
