19
Iteration:   511
 C        -0.032239        -0.079464        -0.039109
 C         1.501449        -0.014841        -0.032551
 C         2.222069         1.320832         0.447888
 C         3.305063         0.458719         1.095762
 C         4.035278        -0.493444         0.029777
 C         3.562150        -0.385161        -1.341480
 O         2.035755        -0.388993        -1.323566
 O         3.387100        -1.705939         0.601159
 C         2.355797        -0.753532         1.122644
 H        -0.440733        -0.072521         0.982383
 H        -0.417911         0.744552        -0.637157
 H        -0.367149        -1.054537        -0.401640
 H         2.390166         2.125686        -0.299931
 H         1.705841         1.813154         1.199441
 H         3.868840         0.676689         1.962586
 H         5.082601        -0.447765        -0.017683
 H         3.772711         0.503051        -1.796612
 H         3.931979        -1.234288        -2.026780
 H         1.779050        -1.093509         2.002085
