19
Iteration:  2598charge 0 multiplicity 1
 C         0.035197         0.057433        -0.109944
 C         1.507772        -0.061444        -0.026903
 C         2.251595         1.274918         0.435275
 C         3.297938         0.441624         1.055837
 C         4.005130        -0.483254         0.040441
 C         3.414521        -0.288983        -1.349340
 O         2.083668        -0.542501        -1.255861
 O         3.351037        -1.695323         0.630809
 C         2.361895        -0.728773         1.096443
 H        -0.212147         0.087730         1.075046
 H        -0.254727         0.913634        -0.569375
 H        -0.309058        -0.990460        -0.443266
 H         2.551624         2.054901        -0.298117
 H         1.694931         1.890818         1.225409
 H         3.903408         0.511347         1.940169
 H         5.120348        -0.654366         0.002678
 H         3.719473         0.641416        -1.733420
 H         3.933105        -1.037574        -2.079265
 H         1.870244        -1.076415         1.983098
