19
Iteration:  1324charge 0 multiplicity 1
 C        -0.051189        -0.099510        -0.080805
 C         1.505412         0.068913        -0.028151
 C         2.233194         1.414557         0.409713
 C         3.307627         0.446252         1.113191
 C         4.086076        -0.537424        -0.017907
 C         3.491933        -0.447452        -1.359019
 O         2.027124        -0.442660        -1.332030
 O         3.399766        -1.715519         0.695584
 C         2.369950        -0.695989         1.145241
 H        -0.424726        -0.135494         0.864074
 H        -0.414166         0.742969        -0.631769
 H        -0.342456        -1.030610        -0.520578
 H         2.540607         2.174512        -0.277112
 H         1.517060         1.878676         1.195977
 H         3.923413         0.638531         1.934762
 H         5.146590        -0.719559        -0.014998
 H         3.765989         0.597625        -1.765063
 H         3.869511        -1.290083        -1.995958
 H         1.737771        -1.038902         2.012424
