19
Iteration:  1432charge 0 multiplicity 1
 C         0.015775         0.011850        -0.137857
 C         1.542621        -0.054848         0.031381
 C         2.188642         1.324121         0.441815
 C         3.259105         0.489145         1.077414
 C         4.011955        -0.474693        -0.020411
 C         3.495694        -0.480163        -1.423738
 O         2.075898        -0.375029        -1.271924
 O         3.387094        -1.661391         0.653068
 C         2.388204        -0.832643         1.219403
 H        -0.423393         0.738633         0.644071
 H        -0.263564         0.436097        -1.062830
 H        -0.477548        -0.978027        -0.114525
 H         2.351833         2.123619        -0.264493
 H         1.530084         1.722723         1.249388
 H         4.006224         0.771848         1.773255
 H         5.051656        -0.502524         0.112732
 H         3.833848         0.307865        -2.023898
 H         3.720900        -1.403864        -1.952887
 H         1.905133        -1.346465         2.093290
