19
Iteration:  4121
 C        -0.002339        -0.121290         0.008951
 C         1.552724        -0.027666        -0.041784
 C         2.278098         1.392780         0.468906
 C         3.306251         0.402953         1.090404
 C         3.984051        -0.512166         0.059900
 C         3.447002        -0.309604        -1.433808
 O         2.019353        -0.340159        -1.398057
 O         3.354546        -1.758781         0.669980
 C         2.447546        -0.799159         1.123447
 H        -0.450241        -0.016580        -1.009735
 H        -0.324759        -1.118949         0.303683
 H        -0.409014         0.610064         0.614862
 H         2.404255         2.114672        -0.411384
 H         1.592483         1.796198         1.249009
 H         3.988764         0.714631         1.942518
 H         5.060811        -0.545534         0.268812
 H         3.793100         0.764578        -1.677420
 H         3.827562        -0.999734        -2.171126
 H         1.839718        -0.970374         2.029874
