19
Iteration:  1393
 C        -0.036080        -0.116772        -0.056768
 C         1.508981         0.021876        -0.104813
 C         2.303658         1.387576         0.434123
 C         3.329400         0.408146         1.025217
 C         4.026076        -0.499726         0.012936
 C         3.507543        -0.450342        -1.389311
 O         2.046829        -0.385763        -1.286328
 O         3.385297        -1.660090         0.739146
 C         2.288204        -0.770447         1.132946
 H        -0.370676        -0.165751         0.951295
 H        -0.480751         0.782904        -0.665520
 H        -0.387460        -1.069654        -0.495485
 H         2.540976         2.237443        -0.235475
 H         1.677924         1.869758         1.260488
 H         3.933697         0.724059         1.942634
 H         5.189992        -0.443230        -0.075071
 H         3.916022         0.566636        -1.775431
 H         3.666097        -1.385615        -2.019786
 H         1.732022        -1.067628         2.021660
