19
Iteration:   162
 C        -0.015401        -0.095255        -0.131758
 C         1.528561        -0.090136        -0.000827
 C         2.203240         1.266829         0.451237
 C         3.381351         0.481250         1.078743
 C         4.044539        -0.458950         0.047687
 C         3.448197        -0.488007        -1.382038
 O         1.992601        -0.275940        -1.349637
 O         3.412864        -1.604761         0.644621
 C         2.402690        -0.747604         1.211013
 H        -0.459086         0.172721         0.785409
 H        -0.386576         0.527793        -0.949859
 H        -0.471212        -1.203028        -0.426259
 H         2.326215         2.229161        -0.258363
 H         1.532301         1.519652         1.424855
 H         4.050099         0.669220         1.979313
 H         5.174341        -0.608246         0.066323
 H         3.931289         0.324968        -2.079296
 H         3.493218        -1.534603        -1.717549
 H         1.871206        -1.333427         1.971811
