19
Iteration:  2091
 C        -0.000836        -0.179359         0.115855
 C         1.517734         0.048276        -0.083656
 C         2.306119         1.346459         0.372064
 C         3.324910         0.450107         1.067899
 C         4.067786        -0.545791         0.080757
 C         3.517893        -0.323530        -1.352003
 O         2.090043        -0.409993        -1.396757
 O         3.234193        -1.692714         0.580038
 C         2.332904        -0.720139         1.134313
 H        -0.403749        -0.143135         1.103743
 H        -0.664238         0.670177        -0.427051
 H        -0.178695        -1.206500        -0.295649
 H         2.624652         2.024255        -0.405185
 H         1.822356         1.874770         1.259570
 H         3.850967         0.909610         2.009618
 H         5.125927        -0.696278         0.208807
 H         3.807650         0.669241        -1.693992
 H         3.784636        -1.190594        -1.977300
 H         1.707827        -1.100685         2.057968
