19
Iteration:   947charge 0 multiplicity 1
 C        -0.042921        -0.175431        -0.016297
 C         1.512368         0.058400        -0.111159
 C         2.221932         1.332682         0.450086
 C         3.317143         0.446822         1.052938
 C         4.102627        -0.538495         0.089950
 C         3.460367        -0.464782        -1.367379
 O         2.074038        -0.352309        -1.434519
 O         3.343557        -1.623879         0.693434
 C         2.357309        -0.715078         1.164336
 H        -0.408108         0.221596         0.996910
 H        -0.547210         0.194767        -0.911907
 H        -0.209251        -1.238804         0.185138
 H         2.456988         2.219928        -0.167390
 H         1.730799         1.737993         1.286889
 H         3.944205         0.955205         1.846008
 H         5.150275        -0.734309         0.051997
 H         3.952606         0.413728        -1.882991
 H         3.828670        -1.328957        -1.961982
 H         1.737098        -1.066777         2.064255
