19
Iteration:   728charge 0 multiplicity 1
 C         0.010334        -0.117168         0.142939
 C         1.563847        -0.062579        -0.127670
 C         2.275690         1.312834         0.338357
 C         3.273642         0.484352         1.150108
 C         3.991024        -0.496309         0.151800
 C         3.505272        -0.272796        -1.391962
 O         2.064783        -0.461677        -1.467124
 O         3.335176        -1.672031         0.648833
 C         2.339893        -0.752646         1.093298
 H        -0.226118         0.207268         1.141884
 H        -0.337219         0.651292        -0.536337
 H        -0.446953        -1.036841        -0.164892
 H         2.852863         2.016789        -0.437522
 H         1.593268         1.844511         0.959670
 H         3.748385         0.819450         2.003197
 H         4.998901        -0.542822         0.310250
 H         3.870594         0.523635        -1.914860
 H         3.855952        -1.257773        -1.705283
 H         1.638401        -1.156879         1.951508
