19
Iteration:  1957charge 0 multiplicity 1
 C         0.033725        -0.226177         0.042720
 C         1.535145         0.029747         0.023683
 C         2.239162         1.347751         0.419839
 C         3.314527         0.436174         1.039540
 C         4.082608        -0.604607         0.011889
 C         3.507129        -0.402024        -1.307700
 O         2.117286        -0.336744        -1.344800
 O         3.257356        -1.612177         0.598951
 C         2.291376        -0.685679         1.046717
 H        -0.394179         0.257875         0.987625
 H        -0.477785         0.167622        -0.841893
 H        -0.237735        -1.305914         0.120805
 H         2.559815         2.078485        -0.322513
 H         1.670491         1.952457         1.111227
 H         3.901979         0.763771         1.953426
 H         5.105226        -0.908949         0.189855
 H         3.883304         0.645635        -1.605094
 H         3.686330        -1.150584        -2.118673
 H         1.728547        -0.975757         1.938408
