19
Iteration:  1094charge 0 multiplicity 1
 C         0.134833        -0.197822         0.047324
 C         1.593167         0.028143        -0.094209
 C         2.247459         1.380718         0.332005
 C         3.303116         0.454430         1.065937
 C         3.987961        -0.483827         0.110643
 C         3.565700        -0.324136        -1.281572
 O         2.013385        -0.428670        -1.370903
 O         3.199870        -1.701669         0.591264
 C         2.361567        -0.742291         1.107127
 H        -0.199825         0.205453         1.012636
 H        -0.471518         0.244943        -0.831513
 H        -0.109916        -1.266558         0.155842
 H         2.509910         2.125790        -0.358773
 H         1.646853         1.774738         1.136131
 H         3.857639         0.763865         1.911415
 H         5.044066        -0.694987         0.206606
 H         3.793367         0.746584        -1.534982
 H         3.935581        -1.157461        -1.865147
 H         1.715972        -0.959882         1.991416
