19
Iteration:  4231charge 0 multiplicity 1
 C        -0.095515         0.089254        -0.028378
 C         1.449647         0.026816        -0.052277
 C         2.265023         1.272103         0.438051
 C         3.256065         0.442516         1.089432
 C         4.073124        -0.460212         0.030785
 C         3.520893        -0.331393        -1.424289
 O         2.035839        -0.526584        -1.218245
 O         3.508477        -1.690424         0.575438
 C         2.355088        -0.874361         1.161985
 H        -0.490973         1.088286        -0.324078
 H        -0.440290        -0.622662        -0.757391
 H        -0.398193        -0.216841         0.996523
 H         2.583045         1.921356        -0.506433
 H         1.690136         1.918629         1.160201
 H         3.576190         0.879106         2.025983
 H         5.159879        -0.367958        -0.029568
 H         3.789120         0.518561        -2.007105
 H         3.677690        -1.224923        -1.965574
 H         1.723218        -1.325289         1.916376
