19
Iteration:  3634
 C        -0.009800         0.036615        -0.154849
 C         1.527344        -0.005875        -0.044926
 C         2.223426         1.284569         0.449818
 C         3.294590         0.468152         1.147069
 C         3.997053        -0.407296         0.030562
 C         3.403265        -0.392775        -1.390021
 O         2.030773        -0.542203        -1.293693
 O         3.398276        -1.700587         0.595952
 C         2.473678        -0.803204         1.217365
 H        -0.359725         0.330548         0.853197
 H        -0.344838         0.798346        -0.834412
 H        -0.602741        -0.901079        -0.310195
 H         2.682572         1.914660        -0.306997
 H         1.784083         1.804408         1.282446
 H         4.011678         0.924261         1.842803
 H         5.081262        -0.395027        -0.028585
 H         3.666984         0.696362        -1.827168
 H         3.908968        -1.309453        -1.843653
 H         1.855623        -1.069763         2.080313
