19
Iteration:   675charge 0 multiplicity 1
 C        -0.028021        -0.073385        -0.268571
 C         1.476276        -0.051321         0.024343
 C         2.213517         1.296286         0.535348
 C         3.397857         0.512209         1.065946
 C         4.084094        -0.487091        -0.035596
 C         3.468701        -0.388256        -1.344997
 O         1.998631        -0.485586        -1.239374
 O         3.329969        -1.667410         0.614189
 C         2.430379        -0.726342         1.214227
 H        -0.542166         0.039593         0.674083
 H        -0.193380         0.693826        -0.980103
 H        -0.353669        -0.976228        -0.688476
 H         2.410096         2.017776        -0.355632
 H         1.727427         1.896778         1.280745
 H         3.917254         0.796764         1.927886
 H         5.134957        -0.513283        -0.006776
 H         3.733347         0.711812        -1.615557
 H         3.754055        -1.111799        -1.954985
 H         2.102654        -1.018521         2.241296
