19
Iteration:  1845charge 0 multiplicity 1
 C         0.065526        -0.106709         0.014567
 C         1.536663         0.056996        -0.061603
 C         2.260257         1.360470         0.359341
 C         3.251431         0.440711         1.057073
 C         4.037820        -0.458438         0.033880
 C         3.565532        -0.328764        -1.341133
 O         2.021404        -0.504767        -1.307281
 O         3.271864        -1.702321         0.653386
 C         2.322577        -0.742770         1.110860
 H        -0.243079         0.146130         1.112502
 H        -0.482412         0.417381        -0.694358
 H        -0.126308        -1.159617        -0.163682
 H         2.655079         2.079579        -0.399926
 H         1.654276         1.881210         1.022223
 H         3.874191         0.650105         1.915183
 H         5.124794        -0.652350         0.255880
 H         4.088086         0.542357        -1.726008
 H         4.002525        -1.088342        -2.059444
 H         1.739968        -1.082165         1.926940
