19
Iteration:  1396
 C        -0.022675        -0.095481        -0.069293
 C         1.512518        -0.002291        -0.117193
 C         2.295937         1.397819         0.436902
 C         3.332332         0.410528         1.044432
 C         4.028055        -0.490373         0.008364
 C         3.476913        -0.455630        -1.369978
 O         2.042234        -0.383434        -1.298579
 O         3.390068        -1.649878         0.739961
 C         2.314090        -0.773346         1.118736
 H        -0.437009        -0.098765         1.050943
 H        -0.434892         0.758032        -0.703132
 H        -0.363261        -1.094680        -0.494057
 H         2.489130         2.296978        -0.226034
 H         1.685184         1.702033         1.234415
 H         3.909670         0.625673         1.991590
 H         5.149533        -0.444739        -0.041111
 H         3.921792         0.387468        -1.779973
 H         3.593414        -1.332507        -1.923827
 H         1.789618        -1.079696         2.010137
