19
Iteration:  2719charge 0 multiplicity 1
 C        -0.063353        -0.059006        -0.088742
 C         1.549194        -0.007041        -0.008871
 C         2.257524         1.408113         0.431517
 C         3.361039         0.439543         1.077684
 C         4.035223        -0.533964         0.043674
 C         3.496000        -0.311939        -1.297141
 O         2.036700        -0.471780        -1.295360
 O         3.331032        -1.768010         0.536615
 C         2.366136        -0.734783         1.159246
 H        -0.398982         0.015713         1.011428
 H        -0.419941         0.772100        -0.531987
 H        -0.309205        -1.124647        -0.370294
 H         2.669682         2.111096        -0.342090
 H         1.544137         1.831831         1.187554
 H         3.885058         0.813999         1.954098
 H         5.139124        -0.360637        -0.042423
 H         3.660966         0.707524        -1.708082
 H         3.942348        -1.091798        -2.034870
 H         1.845241        -1.176653         2.009807
