19
Iteration:  1374
 C         0.028479        -0.139378        -0.011436
 C         1.495426         0.027846         0.032042
 C         2.243820         1.365627         0.316159
 C         3.340911         0.493674         1.047058
 C         4.016647        -0.615665         0.075546
 C         3.507726        -0.294913        -1.350020
 O         2.081864        -0.432397        -1.337015
 O         3.249208        -1.714027         0.642231
 C         2.397582        -0.686459         1.156006
 H        -0.426512        -0.559364         1.017845
 H        -0.548202         0.759901        -0.450420
 H        -0.061138        -1.025036        -0.716474
 H         2.461258         1.857823        -0.692959
 H         1.781850         2.033150         0.974120
 H         3.970017         0.824342         1.934386
 H         5.087478        -0.812362         0.313505
 H         3.889499         0.615152        -1.681189
 H         3.763930        -1.073991        -2.011499
 H         1.878649        -1.005029         2.050336
