19
Iteration:  2074
 C         0.025656        -0.129185        -0.055107
 C         1.526040         0.013804        -0.058448
 C         2.317232         1.374935         0.406732
 C         3.304334         0.428366         1.052506
 C         3.997870        -0.546708         0.063090
 C         3.478511        -0.338450        -1.355106
 O         1.960962        -0.384716        -1.310115
 O         3.386034        -1.706397         0.678385
 C         2.346983        -0.763616         1.115086
 H        -0.113686        -0.292376         1.061325
 H        -0.477842         0.707392        -0.355684
 H        -0.363089        -0.948207        -0.634781
 H         2.624837         2.152706        -0.375263
 H         1.691684         1.950296         1.050962
 H         4.010019         0.641391         1.779608
 H         5.133823        -0.694234        -0.003529
 H         3.835728         0.757314        -1.619753
 H         3.847323        -1.173957        -1.980601
 H         1.759990        -1.034070         1.965617
