19
Iteration:  3291charge 0 multiplicity 1
 C         0.021981        -0.224201        -0.014653
 C         1.534491         0.056046         0.004713
 C         2.210071         1.355473         0.417061
 C         3.382868         0.444709         1.062056
 C         4.049297        -0.542493         0.055463
 C         3.530809        -0.394631        -1.393407
 O         2.059508        -0.373703        -1.251215
 O         3.302970        -1.663596         0.610135
 C         2.298167        -0.659947         1.062396
 H        -0.351998        -0.496599         0.988913
 H        -0.684205         0.706731        -0.357489
 H        -0.202864        -0.945408        -0.843883
 H         2.472068         1.929806        -0.471550
 H         1.777592         2.004897         1.157217
 H         3.855467         0.666235         2.079924
 H         5.077323        -0.764576        -0.008143
 H         3.802663         0.510330        -1.935649
 H         3.835754        -1.359528        -1.843911
 H         1.751164        -0.989899         1.974457
