19
Iteration:  4618charge 0 multiplicity 1
 C         0.013055        -0.239493        -0.034959
 C         1.530775        -0.026565        -0.029563
 C         2.243569         1.327869         0.446499
 C         3.431765         0.456770         1.006880
 C         4.057343        -0.630563         0.039278
 C         3.478547        -0.357450        -1.353000
 O         2.021786        -0.214737        -1.263994
 O         3.291134        -1.695223         0.627743
 C         2.335897        -0.640304         1.068752
 H        -0.722497         0.430708        -0.492733
 H        -0.097165        -1.319236        -0.448638
 H        -0.433022        -0.449268         0.980160
 H         2.380481         2.166159        -0.293463
 H         1.869288         1.735179         1.435869
 H         4.086897         0.696671         1.911961
 H         5.110255        -0.977537         0.109736
 H         3.897967         0.610454        -1.752215
 H         3.538324        -1.119983        -2.169356
 H         1.735196        -0.808298         1.974646
