19
Iteration:  3164
 C        -0.006076        -0.128870        -0.123643
 C         1.506288        -0.007698        -0.022992
 C         2.238683         1.287851         0.378789
 C         3.393558         0.489459         1.087288
 C         4.064490        -0.557324         0.053740
 C         3.457011        -0.334763        -1.274273
 O         2.016901        -0.390320        -1.276914
 O         3.344613        -1.693009         0.636635
 C         2.375668        -0.734504         1.086284
 H        -0.500735         0.207389         0.840950
 H        -0.434594         0.521157        -0.780954
 H        -0.426465        -1.105079        -0.209239
 H         2.394363         2.071151        -0.411040
 H         1.723144         1.812846         1.254271
 H         4.023516         0.863839         1.850761
 H         5.222269        -0.708807        -0.029732
 H         3.783002         0.651943        -1.636218
 H         3.691978        -1.088226        -2.049686
 H         1.848689        -0.985647         1.998575
