19
Iteration:  3290
 C         0.023554        -0.220976        -0.013562
 C         1.535728         0.053357         0.003684
 C         2.208337         1.360237         0.424355
 C         3.381520         0.446301         1.060149
 C         4.040712        -0.552600         0.056755
 C         3.528874        -0.397535        -1.404940
 O         2.061325        -0.371879        -1.250860
 O         3.306506        -1.659551         0.613523
 C         2.293796        -0.660010         1.061403
 H        -0.357652        -0.503245         0.955464
 H        -0.686833         0.681397        -0.352571
 H        -0.211873        -0.982247        -0.852784
 H         2.491172         1.944807        -0.476606
 H         1.770565         2.010100         1.179525
 H         3.886514         0.691238         2.073730
 H         5.090676        -0.784890        -0.013511
 H         3.827483         0.544877        -1.925543
 H         3.849245        -1.362660        -1.823918
 H         1.769369        -0.996896         1.985610
