19
Iteration:  3310charge 0 multiplicity 1
 C         0.031280        -0.090933        -0.003393
 C         1.538652        -0.040471        -0.049167
 C         2.288234         1.333638         0.323915
 C         3.278351         0.470870         1.070391
 C         4.076512        -0.431641         0.109379
 C         3.448239        -0.356407        -1.304972
 O         2.013864        -0.417825        -1.315349
 O         3.276897        -1.721446         0.558582
 C         2.406122        -0.795068         1.160742
 H        -0.338022        -0.387951         0.925202
 H        -0.557191         0.786058        -0.255634
 H        -0.394282        -0.908950        -0.719315
 H         2.725045         2.026461        -0.475775
 H         1.652310         1.886886         1.061159
 H         3.980157         1.032600         1.762358
 H         5.222325        -0.430598         0.218739
 H         3.869553         0.668704        -1.645080
 H         3.854274        -1.262227        -1.761722
 H         1.984036        -1.186127         2.116610
