19
Iteration:  1678
 C         0.087359        -0.108690        -0.157995
 C         1.544112        -0.000305         0.039022
 C         2.182848         1.322807         0.446336
 C         3.359643         0.530764         0.993670
 C         4.009742        -0.521225         0.020469
 C         3.447314        -0.465641        -1.324823
 O         2.033935        -0.370610        -1.249185
 O         3.297199        -1.649059         0.643020
 C         2.393860        -0.745570         1.177561
 H        -0.600713        -0.072978         0.634357
 H        -0.152203         0.595604        -0.953864
 H        -0.074383        -1.115233        -0.625730
 H         2.397401         2.091006        -0.330689
 H         1.642936         1.793573         1.277214
 H         4.007472         0.803133         1.864846
 H         5.111936        -0.758957        -0.075042
 H         4.036309         0.418059        -1.860345
 H         3.651309        -1.494113        -1.850958
 H         1.843845        -1.006062         2.098596
