19
Iteration:  2012
 C         0.028326         0.000658        -0.080151
 C         1.533456         0.005503         0.003337
 C         2.195516         1.335095         0.471399
 C         3.312834         0.424425         1.086161
 C         4.117168        -0.510080         0.017089
 C         3.554181        -0.307990        -1.385577
 O         1.925831        -0.511687        -1.273773
 O         3.397296        -1.688704         0.608991
 C         2.345164        -0.770962         1.106563
 H        -0.478488         0.309889         0.877975
 H        -0.315724         0.727119        -0.921401
 H        -0.334665        -1.040710        -0.320285
 H         2.430623         2.078751        -0.266882
 H         1.552844         1.699141         1.299885
 H         3.954682         0.792748         1.965138
 H         5.112602        -0.778215         0.228386
 H         3.726272         0.464891        -2.007606
 H         3.852005        -1.087931        -2.057004
 H         1.754840        -1.003295         2.017713
