19
Iteration:  4462
 C         0.056101        -0.238528        -0.018582
 C         1.620421        -0.010039        -0.020143
 C         2.248511         1.337171         0.425457
 C         3.361041         0.487784         1.009210
 C         4.031742        -0.605565        -0.009725
 C         3.412462        -0.344398        -1.307125
 O         2.015575        -0.195023        -1.358901
 O         3.248340        -1.753083         0.637486
 C         2.403794        -0.718263         1.216884
 H        -0.351890         0.626798        -0.463835
 H        -0.210948        -1.000874        -0.719130
 H        -0.464115        -0.606226         0.945582
 H         2.406469         2.018159        -0.399300
 H         1.604311         1.693763         1.192523
 H         4.038912         0.869152         1.779232
 H         5.107067        -0.693491        -0.101440
 H         3.855236         0.643439        -1.721729
 H         3.652112        -1.172800        -1.896583
 H         1.992589        -1.020849         2.180170
