19
Iteration:   817charge 0 multiplicity 1
 C         0.004238        -0.057700        -0.063133
 C         1.490328         0.059110        -0.002569
 C         2.150060         1.348566         0.425675
 C         3.326730         0.458843         1.041727
 C         4.104360        -0.471040         0.065477
 C         3.476014        -0.448894        -1.354499
 O         2.058478        -0.467257        -1.316781
 O         3.400807        -1.687596         0.676090
 C         2.349737        -0.762912         1.100167
 H        -0.523838         0.288902         0.897167
 H        -0.403149         0.557231        -0.819505
 H        -0.232016        -1.081877        -0.356139
 H         2.392268         1.964649        -0.532735
 H         1.609011         1.954642         1.171943
 H         4.004002         0.776748         1.870328
 H         5.178514        -0.413460         0.111371
 H         3.820678         0.525991        -1.746837
 H         3.777349        -1.257622        -2.016042
 H         1.677479        -1.271818         1.925180
