19
Iteration:  2898charge 0 multiplicity 1
 C        -0.064892         0.043533        -0.100549
 C         1.502163         0.007720        -0.030244
 C         2.246044         1.288256         0.502139
 C         3.275622         0.438963         1.108312
 C         4.047023        -0.478433         0.008722
 C         3.445529        -0.329028        -1.406622
 O         2.035339        -0.519928        -1.344731
 O         3.448515        -1.699598         0.656538
 C         2.411899        -0.813588         1.172475
 H        -0.460747         0.124075         0.858674
 H        -0.301686         0.976634        -0.759664
 H        -0.474422        -0.832288        -0.537568
 H         2.355386         2.121826        -0.219394
 H         1.562282         1.784842         1.216180
 H         3.830978         0.738379         2.021912
 H         5.205463        -0.492044         0.146352
 H         3.936713         0.583791        -2.001119
 H         3.876841        -1.154817        -2.031903
 H         1.833260        -1.155182         2.072080
