19
Iteration:  4233
 C        -0.097307         0.097616        -0.040083
 C         1.469237         0.005483        -0.040938
 C         2.258372         1.281987         0.442392
 C         3.250363         0.416937         1.100396
 C         4.087862        -0.461906         0.030021
 C         3.520543        -0.310682        -1.425449
 O         2.037267        -0.538993        -1.208952
 O         3.501702        -1.686774         0.573711
 C         2.348509        -0.850292         1.142807
 H        -0.522566         1.017419        -0.296066
 H        -0.363618        -0.563807        -0.748654
 H        -0.441772        -0.204212         1.000890
 H         2.571327         1.876542        -0.447025
 H         1.694449         1.898257         1.161118
 H         3.617071         0.894937         1.951282
 H         5.130211        -0.395982        -0.051695
 H         3.674084         0.521047        -2.075805
 H         3.708819        -1.285859        -1.946780
 H         1.728747        -1.222875         1.915015
