19
Iteration:  1217charge 0 multiplicity 1
 C         0.029141        -0.232445         0.036359
 C         1.516908         0.045490        -0.017590
 C         2.283181         1.343936         0.311482
 C         3.340166         0.445618         1.023742
 C         4.002188        -0.560388         0.060786
 C         3.519917        -0.295121        -1.343926
 O         2.099488        -0.376561        -1.328835
 O         3.253032        -1.713372         0.629204
 C         2.291938        -0.708516         1.232796
 H        -0.464103         0.014485         0.952108
 H        -0.574213         0.514360        -0.725417
 H        -0.092194        -1.223648        -0.496356
 H         2.686214         1.816262        -0.514514
 H         1.824304         2.064892         1.026258
 H         4.002850         0.913835         1.728889
 H         5.148045        -0.674830         0.167949
 H         3.803732         0.693664        -1.791793
 H         3.995556        -1.029029        -2.063702
 H         1.688055        -1.035657         2.074852
