19
Iteration:   862
 C         0.111695        -0.041049         0.078984
 C         1.592922         0.015747        -0.118594
 C         2.228473         1.318359         0.286006
 C         3.211721         0.424589         1.048863
 C         3.969689        -0.531457         0.125794
 C         3.538311        -0.284977        -1.364387
 O         2.051367        -0.540659        -1.311618
 O         3.361199        -1.645580         0.672125
 C         2.304459        -0.752330         1.091153
 H        -0.258084        -0.102773         1.168620
 H        -0.440955         0.685692        -0.469514
 H        -0.211784        -1.028612        -0.292283
 H         2.644291         2.089008        -0.496957
 H         1.442245         1.840573         0.949626
 H         3.937525         0.814344         1.874404
 H         5.048665        -0.616428         0.331261
 H         3.659048         0.785249        -1.706006
 H         3.883892        -0.982729        -2.094161
 H         1.672120        -1.215707         1.995566
