19
Iteration:  1599
 C         0.004055        -0.086874         0.021482
 C         1.508103         0.002346        -0.063652
 C         2.252308         1.270719         0.351589
 C         3.306021         0.439954         1.106351
 C         4.023255        -0.511929         0.078906
 C         3.517020        -0.325362        -1.353738
 O         2.125913        -0.524592        -1.282420
 O         3.268830        -1.610975         0.556162
 C         2.328090        -0.728092         1.180430
 H        -0.385285         0.444702         0.855405
 H        -0.335940         0.566312        -0.909551
 H        -0.374099        -1.114830        -0.157956
 H         2.485372         1.777616        -0.560215
 H         1.678512         2.067213         0.938845
 H         4.116537         0.642827         1.880176
 H         5.135100        -0.515397         0.194525
 H         3.777652         0.848665        -1.561946
 H         4.011046        -0.987938        -2.175653
 H         1.770436        -1.214846         2.066165
