19
Iteration:  4713charge 0 multiplicity 1
 C         0.127601        -0.035650        -0.114043
 C         1.563194        -0.056544         0.054392
 C         2.213287         1.275619         0.497940
 C         3.374211         0.405114         1.040401
 C         3.996992        -0.539299        -0.002738
 C         3.420538        -0.259234        -1.395982
 O         1.989472        -0.373163        -1.335531
 O         3.322871        -1.720396         0.661667
 C         2.401761        -0.751262         1.149556
 H        -0.199272         0.479467        -0.971413
 H        -0.357049        -1.060682        -0.132549
 H        -0.591832         0.232333         0.816017
 H         2.456922         1.997309        -0.297292
 H         1.613537         1.654424         1.312151
 H         3.925237         0.716624         2.002452
 H         5.126963        -0.516795        -0.070831
 H         3.610507         0.803077        -1.770555
 H         3.895690        -0.983902        -2.072524
 H         1.815115        -1.211963         2.017047
