19
Iteration:  1514
 C        -0.003407        -0.157795        -0.007961
 C         1.505819         0.060008        -0.083345
 C         2.218006         1.359040         0.415110
 C         3.288765         0.548815         1.029515
 C         4.019531        -0.609230         0.093491
 C         3.492720        -0.443528        -1.262149
 O         2.080072        -0.332646        -1.343859
 O         3.353654        -1.688831         0.591471
 C         2.357154        -0.728371         1.120652
 H        -0.266832        -0.147970         0.992653
 H        -0.491367         0.622974        -0.598543
 H        -0.260459        -1.145830        -0.382708
 H         2.473912         2.092008        -0.443679
 H         1.766889         1.903558         1.296304
 H         3.960878         0.950332         1.854885
 H         5.158706        -0.813581         0.111875
 H         4.022180         0.292735        -1.974150
 H         3.633305        -1.497532        -1.722978
 H         1.981431        -1.174138         2.042235
