19
Iteration:  3917
 C        -0.142493        -0.077215        -0.059567
 C         1.496540        -0.012947        -0.007089
 C         2.304968         1.306290         0.465518
 C         3.374703         0.394019         1.097012
 C         4.098512        -0.489469         0.060640
 C         3.473103        -0.237816        -1.374993
 O         2.063542        -0.468610        -1.236628
 O         3.306533        -1.692232         0.514869
 C         2.387801        -0.776295         1.123291
 H        -0.424463         0.041252        -1.085066
 H        -0.449078        -1.050301         0.265594
 H        -0.601148         0.735121         0.546503
 H         2.600321         1.898002        -0.395559
 H         1.672410         1.911436         1.166574
 H         4.057750         0.664175         1.804249
 H         5.157200        -0.623954         0.068599
 H         3.784988         0.861802        -1.726416
 H         3.842556        -1.093997        -2.058421
 H         1.983516        -0.973826         2.109612
