19
Iteration:  2076
 C         0.029180        -0.140934        -0.035892
 C         1.518707         0.010510        -0.079903
 C         2.318572         1.382255         0.407377
 C         3.307666         0.421843         1.036847
 C         3.999284        -0.568486         0.075392
 C         3.489168        -0.333792        -1.340295
 O         1.957047        -0.385965        -1.313760
 O         3.382736        -1.692940         0.664804
 C         2.330819        -0.746928         1.122855
 H        -0.077464        -0.298952         1.076852
 H        -0.499461         0.726085        -0.400152
 H        -0.401632        -0.973969        -0.626992
 H         2.676631         2.133314        -0.311180
 H         1.704096         1.958199         1.035272
 H         4.052920         0.674426         1.815647
 H         5.107632        -0.663841         0.058450
 H         3.883012         0.753797        -1.682261
 H         3.841689        -1.132518        -2.018946
 H         1.814356        -1.129177         2.004583
