19
Iteration:  1552
 C         0.019984        -0.023591        -0.222554
 C         1.500198        -0.082809         0.014742
 C         2.251354         1.275483         0.524569
 C         3.333534         0.476813         1.082014
 C         4.002383        -0.579452        -0.010276
 C         3.437915        -0.437979        -1.434248
 O         1.999765        -0.388651        -1.365417
 O         3.438223        -1.605328         0.751993
 C         2.369685        -0.716702         1.230889
 H        -0.389079        -0.075812         0.914747
 H        -0.464689         0.877239        -0.612294
 H        -0.319722        -0.933919        -0.769570
 H         2.431424         2.018521        -0.196978
 H         1.615362         1.731506         1.251990
 H         4.021740         0.929326         1.760037
 H         5.042532        -0.686254        -0.137135
 H         3.869263         0.595614        -2.004108
 H         3.853852        -1.294477        -1.900200
 H         1.815794        -1.119396         2.095593
