19
Iteration:  1867
 C         0.061688        -0.001698        -0.011438
 C         1.589318        -0.082936        -0.059386
 C         2.214409         1.287576         0.351199
 C         3.291183         0.479485         1.141403
 C         3.986419        -0.467812         0.130367
 C         3.468656        -0.326328        -1.379758
 O         2.078030        -0.512856        -1.338380
 O         3.336613        -1.667330         0.632435
 C         2.318640        -0.766350         1.111126
 H        -0.015984         0.053260         1.172867
 H        -0.294299         0.903076        -0.439156
 H        -0.578105        -0.816510        -0.356200
 H         2.466288         1.951523        -0.518539
 H         1.489412         1.794927         0.881954
 H         3.953251         0.849717         1.923773
 H         5.116646        -0.630694         0.119557
 H         3.807854         0.589910        -1.960123
 H         4.021330        -1.112229        -2.031329
 H         1.698789        -1.089375         1.905629
