19
Iteration:  4607charge 0 multiplicity 1
 C         0.024139        -0.290891        -0.013511
 C         1.481382         0.081916         0.095119
 C         2.256442         1.371840         0.482820
 C         3.371659         0.445586         0.965312
 C         4.020720        -0.652356         0.013813
 C         3.517036        -0.368783        -1.376324
 O         2.061231        -0.236907        -1.327177
 O         3.215415        -1.675715         0.564405
 C         2.421548        -0.707096         1.165719
 H        -0.451020         0.284178        -0.840680
 H         0.027162        -1.351864        -0.457599
 H        -0.466552        -0.093695         0.961475
 H         2.192220         2.120142        -0.347453
 H         1.635402         1.836225         1.313693
 H         3.916806         0.831511         1.896639
 H         5.114408        -0.859272         0.090869
 H         4.083209         0.550677        -1.729570
 H         3.768443        -1.239944        -2.064628
 H         2.097901        -0.951108         2.188669
