19
Iteration:  4309charge 0 multiplicity 1
 C         0.008766        -0.294834         0.019056
 C         1.466080         0.076658        -0.026718
 C         2.267643         1.371350         0.421078
 C         3.393873         0.463966         1.054107
 C         4.042596        -0.567045         0.112688
 C         3.470927        -0.369880        -1.331286
 O         2.038877        -0.186832        -1.326839
 O         3.309292        -1.742656         0.540741
 C         2.370421        -0.779751         1.107650
 H        -0.463221         0.002605        -0.883139
 H        -0.069482        -1.312982         0.229403
 H        -0.518077         0.368806         0.839695
 H         2.709006         2.115557        -0.357160
 H         1.569150         1.881426         1.152402
 H         3.995632         0.798814         1.856164
 H         5.102297        -0.675322         0.218928
 H         3.918068         0.414720        -1.906059
 H         3.558790        -1.260634        -1.993378
 H         1.845825        -1.179683         1.943270
