19
Iteration:   757charge 0 multiplicity 1
 C         0.026449        -0.255190        -0.015243
 C         1.543507         0.003402        -0.022042
 C         2.211794         1.446730         0.366290
 C         3.314573         0.450912         0.997784
 C         4.039263        -0.583271         0.077558
 C         3.485476        -0.384262        -1.327817
 O         2.099755        -0.374288        -1.228735
 O         3.287157        -1.700817         0.601610
 C         2.334577        -0.665161         1.121215
 H        -0.401136         0.339516         0.792567
 H        -0.394777         0.379817        -0.876615
 H        -0.205939        -1.332599        -0.265420
 H         2.595062         2.015786        -0.401103
 H         1.644221         1.986935         1.137529
 H         3.959085         0.737585         1.872843
 H         5.165457        -0.569265         0.305508
 H         3.928166         0.642668        -1.816186
 H         3.731801        -1.087048        -2.244195
 H         1.781664        -0.991577         1.964414
