19
Iteration:  1323charge 0 multiplicity 1
 C        -0.047808        -0.095896        -0.090701
 C         1.498964         0.062003        -0.034000
 C         2.231790         1.406147         0.416965
 C         3.303465         0.446441         1.113345
 C         4.092435        -0.538132        -0.015933
 C         3.483582        -0.453695        -1.352842
 O         2.022866        -0.435007        -1.332406
 O         3.409340        -1.715953         0.695586
 C         2.371745        -0.695446         1.144445
 H        -0.409967        -0.094957         0.875877
 H        -0.383423         0.710742        -0.609296
 H        -0.359880        -1.016154        -0.501549
 H         2.539632         2.185330        -0.283379
 H         1.545374         1.881617         1.179512
 H         3.942212         0.665013         1.917675
 H         5.127242        -0.691959         0.012039
 H         3.787093         0.605863        -1.789846
 H         3.829178        -1.291459        -1.977960
 H         1.722937        -1.037367         1.996358
