19
Iteration:  4300
 C        -0.023447        -0.270756        -0.011832
 C         1.481342         0.004905         0.009158
 C         2.286603         1.371589         0.460022
 C         3.333511         0.459580         1.019102
 C         4.070502        -0.606058         0.039479
 C         3.480845        -0.337943        -1.313377
 O         2.035824        -0.213099        -1.304682
 O         3.337342        -1.719594         0.571386
 C         2.329832        -0.721414         1.071001
 H        -0.499976         0.044481        -0.893464
 H        -0.202084        -1.338931         0.008383
 H        -0.411156         0.239827         0.933805
 H         2.547631         2.041687        -0.408053
 H         1.989727         2.042944         1.330908
 H         4.023443         0.841259         1.770643
 H         5.118077        -0.893306         0.101074
 H         3.862406         0.576982        -1.653705
 H         3.758636        -1.300525        -1.909515
 H         1.792791        -1.043557         1.971191
