19
Iteration:  3489
 C         0.049838         0.099407        -0.142583
 C         1.489949        -0.004930        -0.026973
 C         2.243656         1.258484         0.475407
 C         3.281366         0.426235         1.044153
 C         3.988952        -0.425513         0.018733
 C         3.405999        -0.369402        -1.336910
 O         1.992738        -0.545890        -1.249183
 O         3.446665        -1.648455         0.642751
 C         2.444535        -0.843737         1.148668
 H        -0.505793        -0.302752         0.728688
 H        -0.340854         1.128489        -0.491048
 H        -0.135634        -0.602884        -0.808194
 H         2.577046         1.972448        -0.245207
 H         1.703680         1.714022         1.316990
 H         3.902972         0.859765         1.812982
 H         5.040282        -0.546123         0.022506
 H         3.578441         0.501311        -1.948506
 H         3.881106        -1.027089        -2.043135
 H         1.880961        -1.200540         2.001326
