19
Iteration:   650
 C         0.064795        -0.176322        -0.174190
 C         1.561581         0.010958         0.017550
 C         2.253608         1.364510         0.460472
 C         3.384910         0.510810         1.055006
 C         4.000476        -0.519461         0.008774
 C         3.462296        -0.342171        -1.424761
 O         2.024606        -0.409033        -1.236167
 O         3.308953        -1.734303         0.618626
 C         2.317912        -0.732181         1.238128
 H        -0.523123         0.084706         0.674623
 H        -0.170214         0.382581        -1.094869
 H        -0.157383        -1.237043        -0.401658
 H         2.261377         2.295697        -0.223091
 H         1.682605         1.748879         1.344885
 H         4.042058         0.904357         1.860220
 H         5.079146        -0.523524         0.144890
 H         3.751236         0.585967        -1.849306
 H         3.792773        -1.139981        -2.147265
 H         1.820313        -1.123906         2.208535
