19
Iteration:  2510
 C         0.037633        -0.165394        -0.125455
 C         1.522321         0.019859        -0.008522
 C         2.210909         1.430841         0.486178
 C         3.365582         0.451284         1.101920
 C         4.027029        -0.614083        -0.007551
 C         3.472410        -0.406349        -1.391104
 O         2.040327        -0.331206        -1.328682
 O         3.301529        -1.683721         0.676637
 C         2.405689        -0.716983         1.161398
 H        -0.698063         0.319337         0.632121
 H        -0.327004         0.216979        -0.983284
 H        -0.191587        -1.257786         0.045704
 H         2.641277         2.112046        -0.223881
 H         1.638602         1.740072         1.365664
 H         4.090341         0.708688         1.859904
 H         5.147134        -0.754597        -0.030600
 H         3.889822         0.523350        -1.814028
 H         3.610406        -1.268070        -2.154623
 H         1.693859        -1.006774         1.940091
