19
Iteration:  3818charge 0 multiplicity 1
 C         0.101587        -0.083918        -0.096088
 C         1.577693         0.014342        -0.001345
 C         2.253138         1.334720         0.452080
 C         3.327454         0.480816         1.066625
 C         3.964245        -0.525950         0.020225
 C         3.437356        -0.313335        -1.380536
 O         2.000593        -0.518503        -1.254274
 O         3.302840        -1.644952         0.577009
 C         2.395955        -0.779824         1.219751
 H        -0.319722         0.919168        -0.054235
 H        -0.110929        -0.474003        -1.080972
 H        -0.367839        -0.640146         0.690643
 H         2.706691         1.956313        -0.349312
 H         1.664470         1.876583         1.261636
 H         4.084711         0.703828         1.758601
 H         5.040173        -0.478187         0.077681
 H         3.626118         0.694639        -1.814330
 H         3.866818        -1.085497        -2.113386
 H         1.725265        -1.303242         1.900233
