19
Iteration:  2090charge 0 multiplicity 1
 C         0.002027        -0.179076         0.112452
 C         1.515074         0.044685        -0.094651
 C         2.305990         1.354425         0.374851
 C         3.327833         0.446125         1.061013
 C         4.066253        -0.555718         0.080755
 C         3.516875        -0.323806        -1.342359
 O         2.082223        -0.409850        -1.396288
 O         3.243824        -1.688929         0.582617
 C         2.326679        -0.716852         1.139527
 H        -0.414085        -0.157605         1.098999
 H        -0.651760         0.690321        -0.416292
 H        -0.188438        -1.213411        -0.310325
 H         2.658080         2.004659        -0.378304
 H         1.830178         1.867382         1.257194
 H         3.853910         0.918210         2.016302
 H         5.112300        -0.667478         0.233328
 H         3.822900         0.691362        -1.732786
 H         3.758999        -1.172659        -1.998302
 H         1.735349        -1.137880         2.065731
