19
Iteration:  2818
 C         0.100065        -0.207432        -0.040377
 C         1.589149         0.076311        -0.065623
 C         2.265662         1.357727         0.395997
 C         3.338791         0.447932         1.108158
 C         4.002026        -0.559710         0.000038
 C         3.534049        -0.278886        -1.330686
 O         2.019422        -0.326520        -1.336069
 O         3.207960        -1.769189         0.617545
 C         2.334108        -0.749901         1.204524
 H        -0.271878         0.096246         1.015540
 H        -0.478762         0.088960        -0.892317
 H         0.283443        -1.372662        -0.109943
 H         2.515697         2.102868        -0.451358
 H         1.645397         1.787366         1.209556
 H         4.106884         0.823708         1.811891
 H         5.070562        -0.802014         0.174600
 H         3.727087         0.826653        -1.604961
 H         3.572514        -1.037978        -2.202928
 H         1.683870        -0.932739         2.084833
