19
Iteration:  3685
 C        -0.019214        -0.098025         0.019271
 C         1.533043        -0.004590        -0.005153
 C         2.223088         1.319197         0.298054
 C         3.295862         0.490527         1.062463
 C         4.028624        -0.573462         0.091724
 C         3.539421        -0.319483        -1.379141
 O         2.031108        -0.415112        -1.410919
 O         3.297786        -1.705601         0.648736
 C         2.422011        -0.758102         1.231415
 H        -0.429847        -0.491810         1.050743
 H        -0.591371         0.958665        -0.135413
 H        -0.321949        -0.730392        -0.768765
 H         2.491161         2.060612        -0.555238
 H         1.607651         2.010909         1.110694
 H         4.181641         0.863610         1.645175
 H         5.153303        -0.672500         0.192030
 H         3.870870         0.587052        -1.709559
 H         3.940522        -1.249904        -1.950107
 H         2.021850        -1.001689         2.293073
