19
Iteration:  3322
 C         0.012082        -0.036112         0.003567
 C         1.554309        -0.015869        -0.039396
 C         2.233587         1.287608         0.371319
 C         3.318409         0.509665         1.096914
 C         3.909544        -0.521229         0.078493
 C         3.517207        -0.300559        -1.352083
 O         2.033915        -0.485190        -1.329566
 O         3.408209        -1.689662         0.596634
 C         2.350474        -0.803952         1.178909
 H        -0.285405        -0.165195         1.007093
 H        -0.286171         0.978922        -0.379646
 H        -0.358182        -0.878096        -0.686949
 H         2.596056         1.893627        -0.516411
 H         1.652063         1.995354         0.989177
 H         3.910515         0.916280         1.993614
 H         5.012062        -0.675419         0.038850
 H         3.672489         0.657802        -1.945664
 H         3.942392        -1.024719        -2.054552
 H         1.786659        -1.261201         2.035318
