19
Iteration:  1835charge 0 multiplicity 1
 C        -0.018011        -0.172024        -0.039963
 C         1.537288         0.044169        -0.036212
 C         2.257420         1.428365         0.395835
 C         3.363594         0.463981         1.094781
 C         3.972536        -0.606833         0.117722
 C         3.547068        -0.364478        -1.322735
 O         2.058836        -0.446323        -1.345517
 O         3.320295        -1.659745         0.608942
 C         2.336319        -0.715764         1.099339
 H        -0.406050         0.202582         0.959857
 H        -0.551373         0.315328        -0.749816
 H        -0.220333        -1.219693        -0.017238
 H         2.544048         2.020566        -0.525505
 H         1.625809         2.035698         0.966475
 H         4.064641         0.781362         1.863776
 H         5.066016        -0.710375         0.064765
 H         3.657726         0.646503        -1.654965
 H         3.867759        -1.208851        -1.976029
 H         1.795365        -1.015482         1.952377
