19
Iteration:  4293
 C        -0.023213        -0.229562        -0.029769
 C         1.556845        -0.016935         0.013114
 C         2.268258         1.382623         0.484697
 C         3.334434         0.390580         0.993233
 C         4.048361        -0.600411        -0.024499
 C         3.508109        -0.323545        -1.329039
 O         2.026960        -0.269580        -1.278475
 O         3.300046        -1.694993         0.634810
 C         2.350005        -0.699665         1.080856
 H        -0.530329         0.329302        -0.897012
 H        -0.301250        -1.366941        -0.032988
 H        -0.538856        -0.012681         0.862187
 H         2.280251         1.937791        -0.414719
 H         2.105039         2.028266         1.322379
 H         3.871486         0.766251         1.931609
 H         5.183437        -0.684499        -0.159861
 H         3.993210         0.680533        -1.693974
 H         3.888032        -1.018705        -2.084023
 H         1.764857        -0.980339         2.007327
