19
Iteration:  3988charge 0 multiplicity 1
 C         0.011269        -0.138278         0.000407
 C         1.522785         0.009747         0.009351
 C         2.218214         1.390648         0.450745
 C         3.325225         0.474827         1.082940
 C         4.031613        -0.487105         0.043072
 C         3.453370        -0.455537        -1.377543
 O         2.059845        -0.306768        -1.278118
 O         3.366624        -1.720357         0.554202
 C         2.340499        -0.778553         1.050064
 H        -0.563837         0.772165        -0.287526
 H        -0.169255        -1.051309        -0.647029
 H        -0.243534        -0.432204         0.974198
 H         2.715600         2.039463        -0.365500
 H         1.598540         2.033955         1.117207
 H         3.951090         0.841514         2.026133
 H         5.120239        -0.581438         0.331565
 H         3.867270         0.422650        -1.956472
 H         3.773106        -1.390501        -1.761309
 H         1.754025        -1.324925         1.844073
