19
Iteration:  3187charge 0 multiplicity 1
 C         0.062737        -0.020625        -0.022708
 C         1.572715        -0.017752        -0.024544
 C         2.248793         1.326062         0.395110
 C         3.247086         0.436986         1.075926
 C         4.011747        -0.508265         0.029761
 C         3.506731        -0.234655        -1.407209
 O         2.063346        -0.535163        -1.369857
 O         3.344372        -1.710838         0.659561
 C         2.325313        -0.811772         1.200844
 H        -0.420155         0.616492         0.753655
 H        -0.395911         0.338450        -0.850299
 H        -0.390687        -0.999077         0.264048
 H         2.448263         2.074694        -0.409643
 H         1.568640         1.838219         1.158303
 H         3.899661         0.664803         1.863229
 H         5.157107        -0.427270         0.173793
 H         3.631847         0.832303        -1.653578
 H         3.907881        -0.847994        -2.206403
 H         1.834538        -1.124768         2.107359
