19
Iteration:  2588charge 0 multiplicity 1
 C        -0.005996        -0.007328        -0.055846
 C         1.520620         0.019966        -0.061900
 C         2.313140         1.349996         0.417422
 C         3.337651         0.396029         1.068414
 C         4.038773        -0.482699         0.062469
 C         3.459522        -0.294864        -1.261732
 O         2.016395        -0.550908        -1.311423
 O         3.395943        -1.721853         0.647545
 C         2.306443        -0.787550         1.063580
 H        -0.370108         0.019093         1.048238
 H        -0.408401         0.790909        -0.568256
 H        -0.472594        -0.838491        -0.649543
 H         2.638390         2.069611        -0.387962
 H         1.783360         1.955728         1.192797
 H         3.785170         0.921914         1.842727
 H         5.168010        -0.570212        -0.131654
 H         3.594977         0.719626        -1.542930
 H         3.783636        -0.970621        -2.114085
 H         1.724598        -0.987808         1.950350
