19
Iteration:  1146charge 0 multiplicity 1
 C        -0.011996        -0.007636        -0.203833
 C         1.503123        -0.020329         0.048477
 C         2.185982         1.288253         0.462439
 C         3.366291         0.513466         1.047996
 C         4.084527        -0.523341         0.122194
 C         3.423874        -0.397366        -1.323291
 O         1.974761        -0.438162        -1.286307
 O         3.468035        -1.701246         0.620891
 C         2.376028        -0.782290         1.112413
 H        -0.654053         0.320690         0.733293
 H        -0.277832         0.738431        -0.950805
 H        -0.238105        -0.984955        -0.627881
 H         2.463980         1.931152        -0.496159
 H         1.633449         1.779473         1.242943
 H         4.024504         1.129814         1.776546
 H         5.147308        -0.577812         0.155751
 H         3.726231         0.532551        -1.741277
 H         3.623343        -1.290477        -1.889629
 H         1.799088        -1.122675         2.056311
