19
Iteration:  1797charge 0 multiplicity 1
 C         0.091076        -0.176211        -0.130686
 C         1.546495         0.050521         0.005913
 C         2.155468         1.389783         0.482308
 C         3.366923         0.462129         0.995204
 C         3.943084        -0.626804         0.003281
 C         3.447973        -0.430457        -1.421657
 O         2.097419        -0.320012        -1.292420
 O         3.331880        -1.685418         0.685873
 C         2.332198        -0.676752         1.245265
 H        -0.590479         0.356383         0.518460
 H        -0.122371         0.025577        -1.291923
 H        -0.102779        -1.303057        -0.073699
 H         2.287466         2.020254        -0.358933
 H         1.748213         2.006988         1.346077
 H         4.116590         0.746746         1.770825
 H         5.055505        -0.669350         0.151422
 H         3.931457         0.446381        -1.828068
 H         3.805956        -1.234998        -2.068606
 H         1.864184        -1.129439         2.193003
