19
Iteration:  2445charge 0 multiplicity 1
 C         0.039494         0.007979         0.012241
 C         1.588469         0.015888        -0.092037
 C         2.221489         1.305695         0.401666
 C         3.313010         0.392743         1.040450
 C         4.019628        -0.431089         0.066139
 C         3.480815        -0.345059        -1.334565
 O         2.073934        -0.530935        -1.297983
 O         3.303380        -1.680525         0.608208
 C         2.311594        -0.755981         1.102728
 H        -0.158835         0.234085         1.162948
 H        -0.383743         0.687082        -0.675906
 H        -0.183868        -1.032246        -0.397722
 H         2.544359         2.076392        -0.289224
 H         1.532454         1.583943         1.229710
 H         3.918910         0.741747         1.851833
 H         5.166093        -0.516376         0.088921
 H         3.681747         0.742131        -1.687580
 H         3.854989        -1.322517        -1.822396
 H         1.759100        -1.017344         2.016571
