19
Iteration:  1390charge 0 multiplicity 1
 C        -0.045162        -0.130046        -0.060259
 C         1.507927         0.050677        -0.072524
 C         2.298582         1.373590         0.435408
 C         3.319509         0.417855         1.014514
 C         4.034729        -0.518692         0.023640
 C         3.531644        -0.436661        -1.406698
 O         2.051252        -0.391983        -1.286475
 O         3.379904        -1.676443         0.732120
 C         2.276196        -0.754237         1.141515
 H        -0.327545        -0.194583         0.938683
 H        -0.508108         0.691653        -0.531539
 H        -0.383777        -1.026037        -0.522350
 H         2.613608         2.124186        -0.269587
 H         1.716729         2.002222         1.246117
 H         3.930455         0.800995         1.800721
 H         5.114999        -0.492945        -0.048434
 H         3.876214         0.654354        -1.806816
 H         3.783301        -1.350970        -2.081235
 H         1.669282        -1.065877         2.044187
