19
Iteration:  4538
 C        -0.057458         0.027482         0.031557
 C         1.527419        -0.067147         0.019534
 C         2.211788         1.236135         0.362094
 C         3.246948         0.398398         1.050314
 C         4.008760        -0.497314         0.019656
 C         3.454227        -0.220045        -1.387303
 O         2.068831        -0.414767        -1.297684
 O         3.447897        -1.725165         0.638847
 C         2.425297        -0.856961         1.088204
 H        -0.520396         0.180940        -0.978885
 H        -0.720640        -0.760912         0.440932
 H        -0.196739         1.118446         0.551178
 H         2.652118         2.037772        -0.219289
 H         1.754022         1.767032         1.160412
 H         3.759484         0.694394         1.997178
 H         5.102794        -0.497848         0.056540
 H         3.771863         0.802810        -1.798016
 H         3.777217        -0.931007        -2.065672
 H         2.015523        -1.348830         1.991428
