19
Iteration:  4561charge 0 multiplicity 1
 C        -0.018627        -0.060831        -0.011807
 C         1.483969         0.038462        -0.044667
 C         2.220902         1.342943         0.474416
 C         3.367946         0.370478         1.102685
 C         4.090456        -0.521284         0.034918
 C         3.432685        -0.330450        -1.313770
 O         1.971791        -0.434166        -1.372630
 O         3.422202        -1.690206         0.572438
 C         2.374308        -0.751859         1.118411
 H        -0.421869        -0.209061        -1.008678
 H        -0.192091        -1.158869         0.293884
 H        -0.602286         0.784102         0.627353
 H         2.616213         2.180973        -0.153707
 H         1.825632         1.906048         1.330354
 H         4.062605         0.689811         1.976496
 H         5.179486        -0.716463        -0.029618
 H         3.782233         0.718953        -1.613089
 H         3.779594        -1.013636        -2.060744
 H         1.709346        -1.163374         1.918547
