19
Iteration:  2100
 C         0.013965        -0.158251         0.102412
 C         1.546971         0.046514         0.008618
 C         2.276232         1.320534         0.360605
 C         3.325172         0.456966         1.090462
 C         4.034866        -0.504364         0.072851
 C         3.535581        -0.343476        -1.369980
 O         2.102111        -0.401260        -1.352592
 O         3.191588        -1.712788         0.572612
 C         2.354919        -0.723664         1.074112
 H        -0.143731        -0.050923         1.163176
 H        -0.689118         0.451172        -0.626424
 H        -0.233287        -1.229073        -0.197878
 H         2.422919         2.011225        -0.405725
 H         1.645286         1.931538         1.043296
 H         3.994590         0.797203         2.004387
 H         5.046827        -0.796360         0.047347
 H         3.950000         0.682807        -1.784434
 H         4.062998        -1.099430        -1.984638
 H         1.653005        -0.924558         1.952373
