19
Iteration:  4397
 C         0.085353         0.028578        -0.072100
 C         1.549042        -0.040350         0.073633
 C         2.224413         1.270170         0.466743
 C         3.337168         0.447949         1.124602
 C         4.019409        -0.438413        -0.023656
 C         3.393398        -0.261207        -1.444840
 O         2.019927        -0.540853        -1.293272
 O         3.362349        -1.678327         0.582038
 C         2.365850        -0.842326         1.187254
 H        -0.189467         0.884901        -0.643858
 H        -0.172834        -0.823635        -0.663364
 H        -0.506341         0.025795         0.925260
 H         2.684224         1.983544        -0.270929
 H         1.513193         1.785176         1.165356
 H         3.910499         0.873039         1.947249
 H         5.096351        -0.483033        -0.130706
 H         3.639052         0.755385        -1.843294
 H         3.801686        -1.065459        -2.064761
 H         1.874498        -1.329156         2.026324
