19
Iteration:  2995charge 0 multiplicity 1
 C         0.037610        -0.193102        -0.059653
 C         1.543060        -0.028930         0.020659
 C         2.204995         1.330666         0.458450
 C         3.310016         0.442800         1.084952
 C         4.005760        -0.574362         0.026727
 C         3.504698        -0.379828        -1.420543
 O         2.076969        -0.230394        -1.363084
 O         3.298124        -1.692359         0.651031
 C         2.362331        -0.748276         1.184858
 H        -0.432627         0.360102         0.688976
 H        -0.374955         0.191925        -1.035538
 H        -0.170289        -1.227515         0.222632
 H         2.471102         2.017416        -0.400567
 H         1.819305         2.015787         1.224447
 H         3.995310         0.876117         1.858430
 H         5.120844        -0.736264         0.021268
 H         3.901712         0.461668        -1.856528
 H         3.653286        -1.204138        -2.190080
 H         1.854620        -1.095105         2.120130
