19
Iteration:  4576
 C         0.095299        -0.206103        -0.053824
 C         1.585555         0.028961         0.019449
 C         2.309755         1.332735         0.513760
 C         3.351865         0.463267         1.085247
 C         3.993952        -0.531805         0.004085
 C         3.421621        -0.328096        -1.410612
 O         2.006756        -0.355840        -1.265548
 O         3.256313        -1.669648         0.566862
 C         2.378111        -0.749146         1.100331
 H        -0.123948         0.039579        -1.098581
 H        -0.218796        -1.176267         0.336146
 H        -0.373682         0.469015         0.557160
 H         2.425096         2.055703        -0.324725
 H         1.530196         1.651885         1.279023
 H         3.861134         0.719647         2.018587
 H         5.093138        -0.639530         0.028743
 H         3.755577         0.605494        -1.940446
 H         3.752337        -1.283747        -2.007454
 H         1.917270        -1.067655         2.033577
