19
Iteration:    51charge 0 multiplicity 1
 C        -0.010691        -0.168724        -0.087345
 C         1.513656        -0.014601        -0.074223
 C         2.206979         1.311043         0.501743
 C         3.341829         0.468975         1.106007
 C         4.009693        -0.460847        -0.022539
 C         3.429153        -0.464820        -1.426115
 O         2.022980        -0.273177        -1.409840
 O         3.418309        -1.685200         0.739775
 C         2.443084        -0.732031         1.227184
 H        -0.497223        -0.039670         0.875785
 H        -0.272260         0.715617        -0.686405
 H        -0.413271        -1.134540        -0.634588
 H         2.382488         2.316670        -0.116399
 H         1.485605         1.668532         1.343984
 H         3.952074         0.717866         2.049939
 H         5.136946        -0.607442        -0.114308
 H         3.957850         0.127890        -2.253816
 H         3.641787        -1.554421        -1.754175
 H         1.827827        -1.057789         2.119565
