19
Iteration:  3671
 C         0.032621        -0.014382         0.010622
 C         1.527654        -0.004575        -0.096677
 C         2.234456         1.296496         0.359219
 C         3.313146         0.449195         1.037515
 C         4.008966        -0.461252         0.033175
 C         3.478417        -0.364794        -1.337324
 O         2.050514        -0.481212        -1.288469
 O         3.376063        -1.705697         0.683757
 C         2.353745        -0.773767         1.133735
 H        -0.163774        -0.364305         1.022424
 H        -0.385055         1.011685        -0.087569
 H        -0.458437        -0.682610        -0.716982
 H         2.559330         1.917555        -0.497283
 H         1.616517         1.926331         1.017127
 H         3.720506         0.873116         1.983810
 H         5.114115        -0.506133         0.046253
 H         3.769108         0.600783        -1.869688
 H         3.802184        -1.063276        -2.052135
 H         1.678537        -1.172199         1.952549
