19
Iteration:  2862
 C         0.021444        -0.123326        -0.067409
 C         1.518600         0.085459         0.011926
 C         2.218395         1.340876         0.440019
 C         3.309017         0.446845         1.060422
 C         4.027012        -0.542460         0.073783
 C         3.478634        -0.360194        -1.401370
 O         2.101974        -0.367136        -1.321944
 O         3.330002        -1.702326         0.578656
 C         2.363577        -0.787150         1.183991
 H        -0.606543         0.227407         0.831835
 H        -0.493333         0.500037        -0.769527
 H        -0.221266        -1.249120        -0.095747
 H         2.560031         2.047219        -0.378413
 H         1.670364         1.743678         1.295444
 H         3.827150         0.874354         1.931110
 H         5.135295        -0.652094         0.100977
 H         3.849176         0.598473        -1.898614
 H         3.754139        -1.326492        -1.950343
 H         1.839182        -1.289958         2.011793
