19
Iteration:  2101charge 0 multiplicity 1
 C         0.023554        -0.157271         0.098603
 C         1.551471         0.040937         0.016796
 C         2.267336         1.320705         0.361355
 C         3.329771         0.454891         1.088814
 C         4.023904        -0.504440         0.068183
 C         3.541522        -0.341243        -1.366015
 O         2.099479        -0.399131        -1.341511
 O         3.189777        -1.714667         0.572545
 C         2.354191        -0.718710         1.063732
 H        -0.107251        -0.032350         1.146524
 H        -0.698438         0.457768        -0.667690
 H        -0.239501        -1.234419        -0.169226
 H         2.424609         2.004288        -0.420492
 H         1.596409         1.947891         1.032032
 H         4.021388         0.783603         2.010556
 H         5.034677        -0.790860         0.043303
 H         3.967991         0.640541        -1.814084
 H         4.084427        -1.071760        -2.007095
 H         1.647504        -0.942336         1.973531
