19
Iteration:    61
 C         0.056020        -0.145887        -0.134890
 C         1.588083        -0.017297        -0.002329
 C         2.173544         1.362268         0.546885
 C         3.336317         0.490259         1.085450
 C         4.061166        -0.509834         0.035746
 C         3.416933        -0.478013        -1.405308
 O         1.956190        -0.310221        -1.363576
 O         3.391155        -1.693296         0.704054
 C         2.413657        -0.723930         1.116063
 H        -0.464756        -0.155051         0.871922
 H        -0.482373         0.617411        -0.762241
 H        -0.182676        -1.192536        -0.594860
 H         2.397314         2.070240        -0.425968
 H         1.487257         1.849005         1.316670
 H         4.038315         0.828390         1.891253
 H         5.167192        -0.603043         0.027050
 H         3.799751         0.467388        -1.970294
 H         3.675686        -1.472365        -1.971938
 H         1.922530        -0.999821         2.079193
