19
Iteration:  3122
 C         0.031540        -0.204039        -0.101801
 C         1.596224        -0.013883        -0.059325
 C         2.225914         1.386722         0.491593
 C         3.410797         0.511943         1.085537
 C         4.046149        -0.548851         0.041332
 C         3.434681        -0.495854        -1.373037
 O         2.033920        -0.302364        -1.317971
 O         3.274203        -1.668248         0.632732
 C         2.374754        -0.669820         1.153419
 H        -0.255238        -0.516605         1.009907
 H        -0.427635         0.679899        -0.350045
 H        -0.138334        -1.086068        -0.852617
 H         2.318437         2.168866        -0.303285
 H         1.410550         1.675836         1.221151
 H         3.859907         0.841419         1.964392
 H         5.177104        -0.701033         0.013214
 H         3.788425         0.407970        -1.766149
 H         3.655438        -1.368233        -1.895449
 H         1.706350        -1.079547         1.874362
