19
Iteration:  1380
 C        -0.017033        -0.147958        -0.041799
 C         1.502237         0.079235         0.024837
 C         2.254555         1.349538         0.389969
 C         3.296208         0.470141         1.019830
 C         4.027492        -0.593860         0.055087
 C         3.530514        -0.353996        -1.388022
 O         2.068890        -0.420888        -1.323583
 O         3.328863        -1.718177         0.684034
 C         2.331038        -0.687670         1.151100
 H        -0.322456        -0.310873         0.917319
 H        -0.646434         0.685161        -0.352202
 H        -0.203597        -1.009892        -0.646471
 H         2.641103         1.786483        -0.500629
 H         1.852873         2.135159         1.149599
 H         4.007032         0.889963         1.717279
 H         5.110095        -0.761716         0.274467
 H         3.849867         0.678311        -1.930308
 H         3.988866        -1.122123        -2.136172
 H         1.719123        -1.052063         2.015669
