19
Iteration:  3831
 C        -0.002367        -0.115317        -0.102526
 C         1.532736         0.015547         0.052560
 C         2.241188         1.422428         0.439467
 C         3.376487         0.471585         1.110803
 C         4.069830        -0.533174         0.010206
 C         3.424876        -0.351614        -1.384881
 O         2.061699        -0.419157        -1.258055
 O         3.310533        -1.762913         0.580953
 C         2.383885        -0.746407         1.125271
 H        -0.484392         0.806595        -0.224234
 H        -0.211672        -0.716282        -0.922174
 H        -0.474577        -0.693454         0.802126
 H         2.255634         2.166898        -0.416481
 H         1.630157         2.016212         1.230166
 H         3.830871         0.911207         1.946618
 H         5.091798        -0.830070        -0.022008
 H         3.805048         0.543853        -1.829006
 H         3.719044        -1.198190        -2.029245
 H         2.028716        -0.973129         2.093457
