19
Iteration:   373
 C        -0.009577        -0.076793         0.046882
 C         1.522621         0.026785        -0.095774
 C         2.209306         1.333908         0.332173
 C         3.276444         0.443960         1.132584
 C         4.050364        -0.500789         0.108401
 C         3.511360        -0.363371        -1.321539
 O         2.033150        -0.394565        -1.382557
 O         3.427522        -1.729307         0.619863
 C         2.344195        -0.771428         1.112858
 H        -0.235077        -0.209718         1.123446
 H        -0.558749         0.785005        -0.305775
 H        -0.403272        -0.976439        -0.245536
 H         2.427556         2.061781        -0.410610
 H         1.419028         1.919130         0.915573
 H         3.905610         0.783811         1.889180
 H         5.172223        -0.574874         0.010297
 H         3.906367         0.524166        -1.830451
 H         3.839008        -1.165263        -1.856051
 H         1.766927        -1.194374         1.926994
