19
Iteration:   831charge 0 multiplicity 1
 C        -0.038961        -0.028595         0.019686
 C         1.517010        -0.049156        -0.113858
 C         2.264513         1.263282         0.302775
 C         3.239639         0.449460         1.065240
 C         4.028792        -0.459252         0.119969
 C         3.557447        -0.370340        -1.310038
 O         2.042296        -0.455709        -1.303576
 O         3.392342        -1.628295         0.588522
 C         2.355725        -0.773134         1.128516
 H        -0.245010         0.113280         1.151354
 H        -0.475786         0.760044        -0.636666
 H        -0.570216        -1.032304        -0.142391
 H         2.596966         2.072784        -0.440966
 H         1.563756         1.815419         1.078386
 H         3.764820         0.892977         1.988063
 H         5.203128        -0.572625         0.260278
 H         3.839657         0.402053        -1.937266
 H         3.844834        -1.304492        -1.719416
 H         1.898919        -1.111725         2.090365
