19
Iteration:  2878charge 0 multiplicity 1
 C         0.119958        -0.018263        -0.090741
 C         1.554594        -0.116565        -0.043596
 C         2.162692         1.308688         0.471346
 C         3.331289         0.449890         1.128631
 C         4.015271        -0.455056         0.042721
 C         3.470550        -0.416106        -1.339355
 O         1.964093        -0.391296        -1.277576
 O         3.354259        -1.661433         0.591874
 C         2.368449        -0.784935         1.085569
 H        -0.379239         0.268712         0.812609
 H        -0.100615         0.767140        -0.919592
 H        -0.222203        -0.987725        -0.321263
 H         2.376161         2.062111        -0.293637
 H         1.585971         1.844802         1.270980
 H         4.082339         0.792954         1.853981
 H         5.137938        -0.512349         0.051390
 H         3.902645         0.503457        -1.851204
 H         3.886586        -1.267888        -1.855844
 H         1.821961        -1.162306         1.974524
