19
Iteration:  4691charge 0 multiplicity 1
 C        -0.051119         0.059820        -0.088628
 C         1.484921         0.049109        -0.025312
 C         2.222333         1.302104         0.491341
 C         3.284620         0.414403         1.101128
 C         4.053760        -0.536809         0.021755
 C         3.485069        -0.294871        -1.370961
 O         2.037401        -0.557437        -1.241282
 O         3.474247        -1.723853         0.500335
 C         2.380636        -0.777890         1.174655
 H        -0.258364         0.939436        -0.662608
 H        -0.714052        -0.734539        -0.497720
 H        -0.550384         0.191750         0.995855
 H         2.503727         2.027241        -0.283617
 H         1.492483         1.657602         1.191280
 H         3.973102         0.884910         1.881217
 H         5.171373        -0.474414         0.192651
 H         3.684611         0.756352        -1.698979
 H         3.761438        -0.977921        -2.169557
 H         1.896715        -1.291201         2.061648
