19
Iteration:    26charge 0 multiplicity 1
 C         0.008873        -0.080978        -0.044486
 C         1.506908        -0.008552        -0.058738
 C         2.096033         1.319030         0.507117
 C         3.278662         0.494850         1.014179
 C         4.086132        -0.504930         0.039920
 C         3.477945        -0.549105        -1.340801
 O         2.025840        -0.228516        -1.358771
 O         3.499633        -1.696182         0.704563
 C         2.387826        -0.803625         1.099832
 H        -0.400504         0.077261         1.076666
 H        -0.479552         0.797045        -0.666947
 H        -0.337090        -1.039810        -0.372439
 H         2.154517         2.118798        -0.492055
 H         1.429970         1.805173         1.208977
 H         3.864956         0.815439         1.831005
 H         5.126520        -0.539009         0.047792
 H         3.965236         0.215808        -2.057153
 H         3.709535        -1.587680        -1.903000
 H         1.920214        -1.183303         1.996678
