19
Iteration:  4402charge 0 multiplicity 1
 C         0.062483        -0.003371        -0.051406
 C         1.587556         0.002942        -0.002473
 C         2.236985         1.268907         0.516386
 C         3.315982         0.436081         1.112468
 C         4.015462        -0.451795         0.001305
 C         3.370647        -0.276585        -1.411596
 O         2.008430        -0.547178        -1.303803
 O         3.369801        -1.675169         0.565477
 C         2.372012        -0.800588         1.167665
 H        -0.299380         0.991651        -0.510920
 H        -0.132074        -0.884621        -0.760284
 H        -0.365837         0.034580         0.896667
 H         2.553357         1.908206        -0.319303
 H         1.591893         1.826728         1.222235
 H         3.907930         0.808658         1.996093
 H         5.145856        -0.439105        -0.003351
 H         3.652821         0.644665        -1.941016
 H         3.882577        -1.096323        -2.044720
 H         1.938855        -1.270939         2.095076
