19
Iteration:  1082charge 0 multiplicity 1
 C         0.049093        -0.210916         0.056215
 C         1.527755         0.043052        -0.092566
 C         2.230060         1.404292         0.371686
 C         3.275842         0.466050         1.059474
 C         4.062652        -0.570604         0.114831
 C         3.464017        -0.379912        -1.304737
 O         2.121270        -0.340877        -1.337807
 O         3.315705        -1.732371         0.606901
 C         2.288290        -0.691801         1.072959
 H        -0.351106         0.302146         1.019154
 H        -0.614031         0.212004        -0.751579
 H        -0.018271        -1.314502        -0.016282
 H         2.605580         2.112455        -0.396820
 H         1.585505         1.913323         1.043607
 H         3.890048         0.814246         1.923648
 H         5.116377        -0.535677         0.154043
 H         3.983753         0.390177        -1.911176
 H         3.776882        -1.243787        -1.901549
 H         1.724468        -1.118110         1.998948
