19
Iteration:    68charge 0 multiplicity 1
 C         0.094649        -0.159526        -0.129726
 C         1.532066         0.025541         0.026866
 C         2.164778         1.357626         0.501272
 C         3.344485         0.502987         1.038062
 C         4.041421        -0.560891         0.047224
 C         3.427181        -0.442109        -1.368984
 O         1.973146        -0.355233        -1.289013
 O         3.382158        -1.669396         0.657007
 C         2.400846        -0.745517         1.082571
 H        -0.346326        -0.175090         0.941343
 H        -0.385400         0.573243        -0.848552
 H         0.039178        -1.079943        -0.547014
 H         2.410869         2.034526        -0.338779
 H         1.721723         1.890332         1.265858
 H         3.974446         0.851415         1.787184
 H         5.093663        -0.547468         0.145990
 H         3.794658         0.501423        -1.715545
 H         3.629529        -1.278105        -2.049961
 H         1.779735        -1.032088         1.911772
