19
Iteration:   368
 C         0.003774        -0.087714         0.102222
 C         1.555871         0.005844        -0.131178
 C         2.189237         1.364105         0.344097
 C         3.259453         0.467750         1.094592
 C         4.024262        -0.512163         0.108477
 C         3.470781        -0.366860        -1.307262
 O         2.071182        -0.387721        -1.366171
 O         3.388273        -1.731752         0.626254
 C         2.377435        -0.773069         1.091537
 H        -0.250380        -0.163647         1.165332
 H        -0.570716         0.760325        -0.336815
 H        -0.396896        -1.106751        -0.362654
 H         2.700777         2.035917        -0.443001
 H         1.459255         1.899307         0.893428
 H         3.961093         0.924028         1.919028
 H         5.097322        -0.557552         0.162442
 H         3.920070         0.622311        -1.702403
 H         3.890506        -1.207614        -2.072568
 H         1.732706        -1.389923         1.788823
