19
Iteration:  1616charge 0 multiplicity 1
 C         0.016978        -0.113238         0.004850
 C         1.586664        -0.041967        -0.047229
 C         2.252670         1.332896         0.345029
 C         3.321663         0.512860         1.092009
 C         4.006198        -0.485058         0.093707
 C         3.526751        -0.276073        -1.345997
 O         2.056751        -0.453199        -1.411602
 O         3.268359        -1.753685         0.630131
 C         2.322004        -0.755740         1.177408
 H        -0.200454         0.622105         0.884436
 H        -0.554350         0.238447        -0.795603
 H        -0.152218        -1.180606         0.165017
 H         2.742870         2.073130        -0.380368
 H         1.692330         1.826298         1.118448
 H         3.705370         0.942452         1.980044
 H         5.049040        -0.758269         0.157063
 H         3.955390         0.584789        -1.796558
 H         3.880851        -1.083326        -1.916646
 H         1.744786        -0.964174         2.049337
