19
Iteration:  2964charge 0 multiplicity 1
 C         0.059009        -0.209522        -0.015262
 C         1.538395         0.030374        -0.100342
 C         2.307463         1.392727         0.454114
 C         3.312822         0.432538         1.063883
 C         4.019185        -0.549567         0.108359
 C         3.484448        -0.366323        -1.310235
 O         2.055779        -0.351451        -1.304198
 O         3.261083        -1.695028         0.576359
 C         2.327817        -0.710592         1.073668
 H        -0.181437        -0.112310         0.981818
 H        -0.707320         0.242794        -0.731102
 H        -0.071287        -1.215039        -0.251553
 H         2.480911         2.234151        -0.262754
 H         1.900263         1.803112         1.421032
 H         3.916058         0.954995         1.828007
 H         5.192541        -0.639310         0.052603
 H         3.830265         0.526396        -1.859391
 H         3.595053        -1.177257        -2.062823
 H         1.846326        -1.027251         2.041289
