19
Iteration:   283
 C        -0.006105        -0.068631        -0.172409
 C         1.512463        -0.054720        -0.017587
 C         2.212085         1.296664         0.547376
 C         3.332049         0.514267         1.077926
 C         4.035796        -0.523766        -0.001853
 C         3.452919        -0.426991        -1.385126
 O         1.989517        -0.348644        -1.336769
 O         3.407490        -1.672149         0.650817
 C         2.444336        -0.785076         1.210299
 H        -0.470789         0.558058         0.562610
 H        -0.256170         0.288007        -1.167430
 H        -0.430906        -1.050346         0.099981
 H         2.416135         2.138918        -0.110253
 H         1.535667         1.778438         1.337510
 H         3.870723         0.961882         1.830759
 H         5.141881        -0.571609         0.003379
 H         3.833642         0.384790        -1.953866
 H         3.713738        -1.275188        -1.953067
 H         1.956938        -1.221449         2.027995
