19
Iteration:  2571charge 0 multiplicity 1
 C        -0.020378        -0.047046        -0.023589
 C         1.524902         0.012743        -0.038231
 C         2.293619         1.309315         0.324220
 C         3.294954         0.462509         1.117643
 C         4.039263        -0.573660         0.142591
 C         3.460249        -0.316363        -1.386516
 O         1.996418        -0.423453        -1.338162
 O         3.362438        -1.696761         0.645407
 C         2.409144        -0.760417         1.146667
 H        -0.296955        -0.177488         1.004110
 H        -0.501653         0.885858        -0.638869
 H        -0.170538        -0.952134        -0.572157
 H         2.598127         2.128094        -0.323953
 H         1.622704         1.977055         0.887064
 H         3.987122         0.549496         2.037703
 H         5.103625        -0.759000         0.253260
 H         3.781043         0.699869        -1.894370
 H         3.759728        -1.028754        -2.141770
 H         1.816236        -1.365994         1.886739
