19
Iteration:   977
 C         0.123219        -0.090318         0.060949
 C         1.578342        -0.024974        -0.011253
 C         2.225694         1.357097         0.244021
 C         3.211638         0.478247         1.086945
 C         4.027526        -0.542967         0.153496
 C         3.449577        -0.296578        -1.341398
 O         2.046325        -0.477984        -1.344927
 O         3.356919        -1.700655         0.598908
 C         2.310209        -0.766940         1.134641
 H        -0.218339         0.096625         1.062183
 H        -0.174910         0.686851        -0.749755
 H        -0.255571        -1.119054        -0.205770
 H         2.613393         1.875298        -0.632001
 H         1.698323         2.141901         0.987724
 H         3.621956         0.944656         1.908171
 H         5.201244        -0.675604         0.158187
 H         3.739282         0.676470        -1.613802
 H         3.923916        -1.013363        -2.037218
 H         1.745800        -1.044997         1.933852
