19
Iteration:  4015
 C         0.041882        -0.200902         0.031263
 C         1.541617        -0.036629        -0.014814
 C         2.197093         1.312683         0.419574
 C         3.377149         0.458979         1.053392
 C         4.023056        -0.590501         0.025577
 C         3.514078        -0.344922        -1.399245
 O         2.029970        -0.248770        -1.395819
 O         3.268200        -1.683662         0.653431
 C         2.374045        -0.704817         1.171002
 H        -0.480998         0.758622        -0.070199
 H        -0.163806        -0.821110        -0.816087
 H        -0.286739        -0.790651         0.989826
 H         2.535630         2.067827        -0.217381
 H         1.485993         1.776566         1.089703
 H         4.015776         0.786724         1.802167
 H         5.059058        -0.809157         0.188467
 H         3.965900         0.547439        -1.714631
 H         3.882012        -1.189401        -2.064664
 H         1.849529        -1.048532         2.051141
