19
Iteration:  2163
 C         0.046281        -0.023649        -0.196206
 C         1.497681        -0.024424         0.088978
 C         2.257258         1.346407         0.490617
 C         3.301274         0.426804         1.063460
 C         4.031827        -0.524967        -0.029117
 C         3.419923        -0.381595        -1.415747
 O         1.984718        -0.387969        -1.275988
 O         3.450078        -1.709086         0.678839
 C         2.361919        -0.786011         1.152196
 H        -0.451593         0.642499         0.524569
 H        -0.170780         0.346163        -1.145508
 H        -0.386890        -1.023255        -0.045633
 H         2.559585         2.100328        -0.300462
 H         1.703894         1.764193         1.334108
 H         3.813808         0.801508         1.920711
 H         5.156997        -0.576135        -0.053679
 H         3.635470         0.632596        -1.742938
 H         3.670698        -1.254012        -2.035129
 H         1.982734        -1.194872         2.056547
