19
Iteration:   891charge 0 multiplicity 1
 C        -0.065037        -0.183853        -0.122442
 C         1.520918        -0.006096         0.003540
 C         2.225166         1.365032         0.447697
 C         3.421550         0.470072         1.056511
 C         4.036714        -0.521711         0.086444
 C         3.491056        -0.384093        -1.360842
 O         2.003367        -0.433740        -1.311773
 O         3.312991        -1.666600         0.668016
 C         2.436660        -0.653259         1.149137
 H        -0.725128         0.173500         0.629770
 H        -0.411432         0.413748        -0.997550
 H        -0.216860        -1.198405        -0.479573
 H         2.509384         1.934668        -0.379407
 H         1.647831         1.888008         1.113752
 H         4.128545         0.772704         1.760445
 H         5.088720        -0.709747         0.161382
 H         3.843803         0.577274        -1.824890
 H         3.802399        -1.252204        -2.016219
 H         1.928950        -0.946245         2.023248
