19
Iteration:  4706charge 0 multiplicity 1
 C         0.054046         0.007577        -0.115309
 C         1.554853        -0.090025        -0.011707
 C         2.184592         1.278314         0.490488
 C         3.340903         0.453389         1.123375
 C         4.051683        -0.544345        -0.038644
 C         3.400997        -0.259081        -1.412881
 O         2.024569        -0.422513        -1.279928
 O         3.334930        -1.681873         0.654008
 C         2.421148        -0.835197         1.153272
 H        -0.296256         0.743120        -0.920412
 H        -0.288275        -1.046036        -0.351583
 H        -0.296029         0.409156         0.843979
 H         2.417916         2.087366        -0.211513
 H         1.661800         1.819582         1.303721
 H         3.964722         0.756254         1.971363
 H         5.108180        -0.787663        -0.206268
 H         3.650766         0.742377        -1.726818
 H         3.802371        -0.923285        -2.161144
 H         1.886936        -1.184158         2.017914
