19
Iteration:  3852
 C        -0.042433        -0.174708        -0.016271
 C         1.496548         0.025784        -0.028923
 C         2.241509         1.284155         0.484723
 C         3.397745         0.413460         0.934510
 C         4.050606        -0.601109         0.044644
 C         3.575082        -0.398240        -1.315549
 O         2.036071        -0.237345        -1.334996
 O         3.321090        -1.645498         0.636998
 C         2.346365        -0.749266         1.135680
 H        -0.551738         0.619494        -0.467678
 H        -0.296834        -1.027744        -0.537383
 H        -0.531889        -0.358698         0.974951
 H         2.294774         2.094998        -0.313882
 H         1.790331         1.880828         1.378152
 H         4.008867         0.833816         1.644975
 H         5.091081        -0.643543         0.228952
 H         3.770324         0.539627        -1.827648
 H         3.500163        -1.254429        -2.017406
 H         1.892591        -1.075251         2.041899
