19
Iteration:  2096
 C        -0.009269        -0.165971         0.105360
 C         1.531988         0.056096        -0.030876
 C         2.296248         1.322723         0.367877
 C         3.321696         0.462974         1.095112
 C         4.057431        -0.512550         0.080613
 C         3.522925        -0.336149        -1.375960
 O         2.106393        -0.407141        -1.383020
 O         3.203807        -1.705382         0.573669
 C         2.348098        -0.732613         1.111804
 H        -0.299331        -0.091190         1.200645
 H        -0.612402         0.450214        -0.446330
 H        -0.188386        -1.171433        -0.248176
 H         2.490491         2.080103        -0.458884
 H         1.780181         1.881854         1.131352
 H         3.851576         0.816659         1.913757
 H         5.157262        -0.796820         0.102157
 H         3.848685         0.693598        -1.670026
 H         3.940244        -1.186625        -1.936005
 H         1.700744        -0.929968         1.912243
