19
Iteration:  4255charge 0 multiplicity 1
 C         0.069246        -0.024484        -0.105105
 C         1.523760        -0.046186        -0.012809
 C         2.237098         1.312501         0.461361
 C         3.398178         0.484161         1.083665
 C         3.999315        -0.464562         0.034790
 C         3.417101        -0.327225        -1.317652
 O         1.997288        -0.554165        -1.289975
 O         3.324846        -1.652517         0.556830
 C         2.437614        -0.793462         1.165612
 H        -0.126740         0.972153        -0.394458
 H        -0.282104        -0.593385        -0.875053
 H        -0.400650        -0.139565         0.921246
 H         2.402481         2.082170        -0.341035
 H         1.553727         1.720003         1.235302
 H         3.882795         0.675012         1.999960
 H         5.061910        -0.462506        -0.032048
 H         3.641407         0.677882        -1.548280
 H         3.728886        -1.042298        -2.123071
 H         1.860690        -1.199359         1.973645
