19
Iteration:  2997
 C         0.032336        -0.190002        -0.075535
 C         1.553169        -0.049430         0.010842
 C         2.216528         1.311580         0.443820
 C         3.303378         0.470038         1.060672
 C         3.982439        -0.565143         0.018016
 C         3.508388        -0.369679        -1.414875
 O         2.065868        -0.225249        -1.339324
 O         3.305022        -1.697032         0.650071
 C         2.363135        -0.761789         1.201410
 H        -0.403585         0.398267         0.678009
 H        -0.403036         0.214001        -1.056195
 H        -0.122355        -1.152362         0.255694
 H         2.542679         2.076082        -0.335586
 H         1.816416         1.964920         1.295455
 H         3.981008         0.862680         1.890144
 H         5.150735        -0.804293         0.002653
 H         3.903114         0.514491        -1.859683
 H         3.702942        -1.273185        -2.126059
 H         1.845538        -1.107655         2.155719
