19
Iteration:  4590
 C         0.109466        -0.243209        -0.059635
 C         1.570068        -0.021525         0.067376
 C         2.182882         1.399852         0.502210
 C         3.400256         0.477647         1.059755
 C         3.974384        -0.468461        -0.034673
 C         3.486125        -0.357144        -1.439217
 O         2.091881        -0.291424        -1.266358
 O         3.186446        -1.778220         0.539195
 C         2.373001        -0.724697         1.235857
 H        -0.423089         0.069967        -0.992473
 H        -0.060287        -1.261011         0.023129
 H        -0.532626         0.211063         0.720228
 H         2.554943         2.080132        -0.250226
 H         1.873316         2.020046         1.331548
 H         4.232407         0.838718         1.550773
 H         5.019394        -0.710762         0.105932
 H         3.844480         0.496760        -1.985630
 H         3.659509        -1.237986        -2.066905
 H         1.684430        -1.059278         2.024978
