19
Iteration:  4549
 C        -0.132957        -0.028693        -0.013177
 C         1.494635        -0.009994        -0.091230
 C         2.304346         1.363481         0.489969
 C         3.344280         0.431881         1.056825
 C         4.044254        -0.500084         0.046392
 C         3.477677        -0.254023        -1.365364
 O         2.006965        -0.435554        -1.316888
 O         3.467693        -1.787742         0.638419
 C         2.382872        -0.860918         1.074634
 H        -0.652021         0.135379        -0.981059
 H        -0.509290        -0.866021         0.635148
 H        -0.457247         0.925587         0.678238
 H         2.429787         1.981399        -0.393080
 H         1.604421         1.779486         1.160652
 H         3.994922         0.765818         1.911941
 H         5.139505        -0.437696         0.071372
 H         3.659600         0.795477        -1.728514
 H         3.858875        -0.927110        -2.054299
 H         1.825197        -1.209313         1.980280
