19
Iteration:   829charge 0 multiplicity 1
 C        -0.043800        -0.033664         0.015424
 C         1.513533        -0.034668        -0.117976
 C         2.253515         1.268342         0.316210
 C         3.248065         0.445052         1.059614
 C         4.046555        -0.470314         0.121451
 C         3.546937        -0.379273        -1.309416
 O         2.040711        -0.453665        -1.297276
 O         3.397454        -1.623032         0.592517
 C         2.355422        -0.777329         1.123907
 H        -0.282133         0.200011         1.133882
 H        -0.474270         0.706825        -0.614931
 H        -0.502257        -1.023054        -0.219351
 H         2.570635         2.075305        -0.468269
 H         1.580865         1.792710         1.071133
 H         3.817759         0.861272         1.957770
 H         5.142706        -0.514718         0.288059
 H         3.846849         0.415670        -1.960936
 H         3.847595        -1.304784        -1.748697
 H         1.864268        -1.121547         2.126300
