19
Iteration:  4224charge 0 multiplicity 1
 C        -0.076064         0.059456        -0.025122
 C         1.435545         0.065705        -0.065096
 C         2.238817         1.285538         0.377536
 C         3.283819         0.476262         1.087005
 C         4.037847        -0.446565         0.039711
 C         3.482087        -0.389634        -1.369255
 O         2.023443        -0.468968        -1.280655
 O         3.505272        -1.690846         0.591128
 C         2.391134        -0.924739         1.187089
 H        -0.342607         1.048928        -0.278213
 H        -0.601119        -0.670006        -0.628035
 H        -0.374477        -0.187866         1.034298
 H         2.558423         1.922050        -0.368062
 H         1.706483         1.917253         1.065154
 H         3.727548         0.743582         2.036102
 H         5.116062        -0.398216         0.134389
 H         4.008545         0.556316        -1.767334
 H         3.779125        -1.237090        -2.110184
 H         1.910543        -1.573395         1.935113
