19
Iteration:  4181
 C         0.034363        -0.181882        -0.043551
 C         1.556477         0.040496        -0.030328
 C         2.241869         1.399646         0.499133
 C         3.357578         0.406061         1.037243
 C         4.008777        -0.589280         0.002384
 C         3.471796        -0.347972        -1.414833
 O         2.057998        -0.354017        -1.306795
 O         3.273382        -1.655971         0.652833
 C         2.376052        -0.755092         1.151716
 H        -0.499831         0.326751        -0.858161
 H        -0.095893        -1.300260        -0.137360
 H        -0.372890         0.033255         1.011043
 H         2.374172         2.177207        -0.174080
 H         1.648332         1.779687         1.324329
 H         4.146973         0.804123         1.690774
 H         5.094719        -0.743712         0.034649
 H         3.770614         0.704094        -1.828539
 H         3.781629        -1.117259        -2.221465
 H         1.749645        -1.084976         2.006216
