19
Iteration:  4209charge 0 multiplicity 1
 C         0.004455         0.025850         0.007487
 C         1.554234        -0.089692        -0.061249
 C         2.197069         1.310131         0.402045
 C         3.281568         0.395852         1.092993
 C         4.022276        -0.503435         0.080451
 C         3.437700        -0.343356        -1.301775
 O         1.982908        -0.363738        -1.397142
 O         3.441275        -1.710297         0.642944
 C         2.445724        -0.820497         1.130185
 H        -0.377803         0.947628        -0.469201
 H        -0.377935        -0.798495        -0.580612
 H        -0.312657        -0.053344         1.049395
 H         2.517898         1.958248        -0.522449
 H         1.498744         1.877354         1.073442
 H         3.980345         0.851602         1.787087
 H         5.105326        -0.497693        -0.037616
 H         3.666372         0.529195        -1.827263
 H         3.802034        -1.197784        -1.814443
 H         1.859965        -1.055402         2.012146
