19
Iteration:  2309charge 0 multiplicity 1
 C         0.017036         0.001585        -0.073338
 C         1.540401         0.006370        -0.024200
 C         2.278965         1.262921         0.372811
 C         3.275758         0.393660         1.074289
 C         3.998041        -0.528762         0.025509
 C         3.473672        -0.325058        -1.392616
 O         2.022306        -0.426945        -1.279066
 O         3.379899        -1.653217         0.667332
 C         2.390712        -0.809483         1.195140
 H        -0.356632         0.533534         0.704995
 H        -0.468343         0.296551        -1.035404
 H        -0.366155        -0.982516         0.040994
 H         2.645102         2.051313        -0.260333
 H         1.581371         1.821538         1.075339
 H         4.100539         0.729872         1.829265
 H         5.033602        -0.491354         0.035811
 H         3.699196         0.726564        -1.820071
 H         3.673499        -1.090236        -2.113308
 H         1.792908        -1.251050         2.007818
