19
Iteration:  2877charge 0 multiplicity 1
 C         0.113361        -0.021417        -0.085743
 C         1.557407        -0.106095        -0.037226
 C         2.171001         1.305614         0.471847
 C         3.326649         0.454096         1.123387
 C         4.011186        -0.463190         0.036341
 C         3.472282        -0.413326        -1.328821
 O         1.965645        -0.390182        -1.279908
 O         3.353076        -1.656653         0.588470
 C         2.369276        -0.790427         1.090884
 H        -0.339811         0.253301         0.808362
 H        -0.116581         0.736636        -0.955120
 H        -0.199531        -0.984723        -0.332197
 H         2.343893         2.073831        -0.304232
 H         1.574728         1.842075         1.246268
 H         4.073224         0.790832         1.854507
 H         5.158521        -0.525785         0.071896
 H         3.936031         0.507200        -1.870881
 H         3.873492        -1.274118        -1.871455
 H         1.801273        -1.175338         1.974078
