19
Iteration:  1233
 C         0.078568        -0.196208        -0.084561
 C         1.557746         0.006341         0.048806
 C         2.344680         1.379698         0.326463
 C         3.319918         0.502672         1.084603
 C         3.927762        -0.571549         0.033954
 C         3.516846        -0.233496        -1.399042
 O         2.073285        -0.473428        -1.289674
 O         3.167100        -1.669942         0.628817
 C         2.387965        -0.749628         1.187788
 H        -0.351922        -0.071051         0.976517
 H        -0.375521         0.205828        -0.840485
 H        -0.111376        -1.227876        -0.004085
 H         2.583640         2.021772        -0.651136
 H         1.704311         1.975696         0.948734
 H         4.063202         0.827971         1.932840
 H         4.940198        -0.866639         0.146637
 H         3.918818         0.894164        -1.446791
 H         3.768666        -0.918435        -2.176585
 H         1.870230        -1.121605         2.115940
