19
Iteration:  2834charge 0 multiplicity 1
 C         0.060215        -0.289484        -0.019396
 C         1.538244         0.026501        -0.016244
 C         2.330918         1.351199         0.425631
 C         3.385088         0.431030         1.011570
 C         4.017170        -0.637212         0.102342
 C         3.474777        -0.250695        -1.336635
 O         2.038939        -0.306798        -1.354100
 O         3.227524        -1.683209         0.642075
 C         2.330372        -0.683491         1.078858
 H        -0.542065         0.103548         0.772614
 H        -0.516385         0.368851        -0.762394
 H        -0.152479        -1.287166         0.084159
 H         2.555243         1.996682        -0.416528
 H         1.738704         1.819720         1.236915
 H         3.877188         0.723335         1.952400
 H         5.124953        -0.828842         0.040747
 H         3.904592         0.718891        -1.552289
 H         3.856383        -0.983844        -2.023576
 H         1.710849        -1.081898         1.908392
