19
Iteration:  1202charge 0 multiplicity 1
 C         0.013821        -0.165883        -0.045941
 C         1.538346        -0.017010        -0.064087
 C         2.232343         1.331905         0.386272
 C         3.341605         0.476413         1.051288
 C         4.084901        -0.565319         0.105455
 C         3.492303        -0.399613        -1.297575
 O         2.012868        -0.339387        -1.303848
 O         3.303415        -1.683790         0.663871
 C         2.375830        -0.677095         1.005107
 H        -0.189754        -0.124045         1.064361
 H        -0.559974         0.656510        -0.504425
 H        -0.297115        -1.173474        -0.377484
 H         2.362132         2.097698        -0.462763
 H         1.672759         1.883513         1.158360
 H         3.779169         0.702210         2.031143
 H         5.133592        -0.659590         0.145187
 H         4.014285         0.390847        -1.771871
 H         3.671001        -1.236102        -1.929925
 H         1.866855        -0.885374         2.002658
