19
Iteration:   234charge 0 multiplicity 1
 C         0.102146        -0.159412         0.059540
 C         1.581960         0.006798        -0.029343
 C         2.246584         1.389203         0.303212
 C         3.246898         0.448374         1.144080
 C         3.984126        -0.508431         0.088559
 C         3.493190        -0.286746        -1.360466
 O         2.059578        -0.469247        -1.337954
 O         3.296507        -1.678836         0.571088
 C         2.331618        -0.787226         1.143890
 H        -0.283781        -0.209481         1.119097
 H        -0.291030         0.758210        -0.417913
 H        -0.293470        -1.129384        -0.283408
 H         2.546995         2.002918        -0.569906
 H         1.702218         2.076670         0.842948
 H         4.001329         0.897413         1.912369
 H         5.049678        -0.693589         0.233390
 H         3.796959         0.746801        -1.729630
 H         3.924433        -0.952110        -2.239222
 H         1.771580        -1.282511         2.011764
