19
Iteration:  3475charge 0 multiplicity 1
 C        -0.092994         0.004324        -0.136167
 C         1.535376        -0.027366         0.030773
 C         2.271224         1.334949         0.453038
 C         3.356342         0.413611         1.124457
 C         4.063849        -0.422172         0.030258
 C         3.446564        -0.366258        -1.382103
 O         2.018843        -0.535518        -1.247544
 O         3.427346        -1.675336         0.570062
 C         2.333750        -0.744756         1.150430
 H        -0.594110        -0.111171         0.791919
 H        -0.246039         1.030612        -0.446090
 H        -0.559582        -0.789409        -0.898691
 H         2.597195         1.957306        -0.443563
 H         1.629006         1.915666         1.169723
 H         3.983925         0.596784         2.024892
 H         5.243116        -0.424661        -0.034918
 H         3.750854         0.552499        -1.854858
 H         3.642991        -1.293599        -1.920156
 H         1.910186        -1.292448         2.011243
