19
Iteration:  1278charge 0 multiplicity 1
 C        -0.048525        -0.034363        -0.120546
 C         1.544105        -0.027282        -0.061813
 C         2.132886         1.341157         0.538041
 C         3.275075         0.484776         1.077992
 C         4.041904        -0.542176         0.039667
 C         3.494839        -0.497482        -1.446189
 O         2.053274        -0.357862        -1.315566
 O         3.430880        -1.682582         0.668690
 C         2.424193        -0.761003         1.160099
 H        -0.353046         0.605734         0.688505
 H        -0.302749         0.332259        -1.012775
 H        -0.553949        -0.926578         0.128772
 H         2.567778         1.975650        -0.309070
 H         1.596447         1.995131         1.236396
 H         3.875367         0.795148         1.950835
 H         5.089749        -0.505620         0.076768
 H         3.832732         0.444766        -2.070053
 H         3.653098        -1.466780        -1.902400
 H         1.940922        -1.087853         2.120896
