19
Iteration:  2355
 C         0.070527        -0.110167        -0.004551
 C         1.532478         0.026051        -0.071572
 C         2.266541         1.283030         0.449827
 C         3.309845         0.437326         1.053111
 C         4.017727        -0.517597         0.037502
 C         3.513962        -0.347331        -1.419164
 O         2.107302        -0.434129        -1.325700
 O         3.269582        -1.663207         0.587558
 C         2.270386        -0.713084         1.236890
 H        -0.160896         0.265583         1.038613
 H        -0.529670         0.358788        -0.743495
 H        -0.310275        -1.110705        -0.101405
 H         2.498082         2.008432        -0.318168
 H         1.698217         1.879164         1.183873
 H         3.971354         0.924196         1.823624
 H         5.071457        -0.728950         0.062865
 H         3.681766         0.643483        -1.977319
 H         3.922269        -1.265503        -1.936857
 H         1.812697        -1.036821         2.195321
