19
Iteration:  1684charge 0 multiplicity 1
 C         0.105622        -0.094432        -0.135204
 C         1.500362         0.019595         0.040237
 C         2.177939         1.363223         0.449186
 C         3.343943         0.506233         1.026786
 C         4.044905        -0.540202         0.004583
 C         3.488105        -0.446630        -1.356758
 O         2.050554        -0.419115        -1.263354
 O         3.323315        -1.716805         0.645648
 C         2.346868        -0.676578         1.187234
 H        -0.632969        -0.003142         0.722382
 H        -0.298861         0.671557        -0.892907
 H         0.072326        -1.017278        -0.713043
 H         2.238418         2.030119        -0.456115
 H         1.664032         1.795863         1.333889
 H         3.782209         0.829921         1.970156
 H         5.095553        -0.698583        -0.144795
 H         3.784400         0.358613        -1.960303
 H         3.746283        -1.274172        -1.929874
 H         1.938341        -1.012426         2.172139
