19
Iteration:  1378charge 0 multiplicity 1
 C        -0.006506        -0.139018        -0.036388
 C         1.497706         0.065066         0.030461
 C         2.249492         1.354502         0.365545
 C         3.309935         0.480805         1.032107
 C         4.029238        -0.605799         0.062602
 C         3.521601        -0.334758        -1.374132
 O         2.073775        -0.426080        -1.330624
 O         3.305172        -1.719014         0.670169
 C         2.356086        -0.682754         1.150796
 H        -0.363689        -0.402744         0.963085
 H        -0.575375         0.640046        -0.350795
 H        -0.141525        -0.999599        -0.655418
 H         2.581568         1.780565        -0.567116
 H         1.837394         2.113604         1.108442
 H         3.974283         0.852014         1.752398
 H         5.030284        -0.782256         0.302566
 H         3.876856         0.698346        -1.886517
 H         3.928732        -1.107191        -2.103204
 H         1.758729        -1.048113         2.038769
