19
Iteration:  2562
 C         0.064886        -0.074670        -0.039486
 C         1.551213        -0.018018        -0.011608
 C         2.246120         1.304476         0.366151
 C         3.310957         0.425450         1.127155
 C         4.005231        -0.518924         0.063915
 C         3.491234        -0.353590        -1.400991
 O         2.042461        -0.354860        -1.341072
 O         3.311554        -1.695576         0.645140
 C         2.363521        -0.777239         1.159128
 H        -0.263693        -0.126886         1.068593
 H        -0.537291         0.768499        -0.541085
 H        -0.276947        -1.001863        -0.558559
 H         2.679766         1.808547        -0.524459
 H         1.621834         1.943629         1.075309
 H         3.816207         0.941776         2.010565
 H         5.052917        -0.708131        -0.016752
 H         3.853540         0.599682        -1.834680
 H         3.631379        -1.232676        -2.017050
 H         1.824309        -0.956402         2.106987
