19
Iteration:  3470
 C        -0.101136        -0.027887        -0.123467
 C         1.546356        -0.028465         0.014066
 C         2.250301         1.376546         0.434811
 C         3.363660         0.432989         1.129228
 C         4.103503        -0.431481         0.073241
 C         3.449466        -0.381563        -1.374519
 O         2.021837        -0.501797        -1.258547
 O         3.427640        -1.709014         0.531131
 C         2.315259        -0.715359         1.189617
 H        -0.627065        -0.158703         0.889526
 H        -0.220480         1.021637        -0.495673
 H        -0.536730        -0.833354        -0.737901
 H         2.608278         1.885507        -0.437929
 H         1.595980         1.897176         1.111570
 H         3.894241         0.596037         2.064722
 H         5.169300        -0.682403         0.035951
 H         3.733137         0.553758        -2.005877
 H         3.623321        -1.233763        -2.113132
 H         1.906889        -1.291640         2.019409
