19
Iteration:  4641charge 0 multiplicity 1
 C         0.067460        -0.108852         0.020766
 C         1.539089         0.029928        -0.022725
 C         2.287608         1.379951         0.458883
 C         3.273425         0.427183         1.079908
 C         3.950522        -0.484791        -0.002029
 C         3.471777        -0.332414        -1.394222
 O         2.014864        -0.358275        -1.434952
 O         3.351858        -1.748972         0.683100
 C         2.409702        -0.820156         1.173048
 H        -0.592657         0.748415        -0.207214
 H        -0.182529        -0.920464        -0.713587
 H        -0.384864        -0.509889         0.909694
 H         2.493383         2.108838        -0.354719
 H         1.651519         1.906067         1.249404
 H         3.978146         0.698437         1.886291
 H         5.008273        -0.697963         0.095359
 H         3.959567         0.615099        -1.778001
 H         3.744562        -1.165871        -2.123911
 H         1.925037        -1.076407         2.104960
