19
Iteration:  1643
 C        -0.006628        -0.159516        -0.040373
 C         1.548488         0.085050         0.006521
 C         2.191580         1.377288         0.413047
 C         3.298979         0.402181         1.029211
 C         4.036952        -0.567085         0.008136
 C         3.485512        -0.441139        -1.327496
 O         2.044437        -0.303894        -1.368441
 O         3.340707        -1.661565         0.747049
 C         2.394419        -0.743627         1.071679
 H        -0.558983         0.359417         0.670099
 H        -0.437190         0.138190        -1.087909
 H         0.019785        -1.251880        -0.015083
 H         2.591109         2.051859        -0.258323
 H         1.569235         1.913313         1.174904
 H         3.885782         0.601993         1.992043
 H         5.131430        -0.750901         0.075028
 H         4.162712         0.436105        -1.856736
 H         3.728238        -1.411495        -1.912290
 H         1.815050        -0.990173         2.037733
