19
Iteration:  2552
 C         0.089976        -0.145573        -0.025331
 C         1.570033        -0.005147        -0.033312
 C         2.248696         1.284959         0.439870
 C         3.299632         0.452344         1.045476
 C         4.018501        -0.505569        -0.025218
 C         3.466747        -0.400432        -1.343497
 O         2.067982        -0.311915        -1.323378
 O         3.271745        -1.709412         0.638086
 C         2.304687        -0.727617         1.171236
 H        -0.436992        -0.036982         1.038920
 H        -0.176918         0.797346        -0.562946
 H        -0.326321        -1.096563        -0.450416
 H         2.444920         1.935766        -0.484288
 H         1.717694         2.018492         1.174601
 H         4.025900         0.821173         1.855978
 H         5.083034        -0.484741         0.088439
 H         3.966221         0.380182        -1.871458
 H         4.004611        -1.244521        -1.823870
 H         1.742411        -1.104687         2.052579
