19
Iteration:  4195charge 0 multiplicity 1
 C         0.122023        -0.114692        -0.000268
 C         1.553368        -0.025932        -0.024059
 C         2.222036         1.227724         0.437530
 C         3.358713         0.488536         1.066803
 C         4.015401        -0.510562         0.016050
 C         3.435092        -0.324006        -1.430992
 O         1.986717        -0.341530        -1.353044
 O         3.367757        -1.734354         0.699340
 C         2.319277        -0.715497         1.107667
 H        -0.260886         0.804530        -0.616876
 H        -0.395321        -1.102586        -0.434269
 H        -0.293499         0.111909         0.967511
 H         2.448426         2.043983        -0.354130
 H         1.672570         1.700727         1.294745
 H         3.788027         0.689361         2.129154
 H         5.163962        -0.650349         0.071646
 H         3.919512         0.608011        -1.799253
 H         3.714027        -1.132437        -2.085310
 H         1.724330        -1.086865         2.016072
