19
Iteration:  2611charge 0 multiplicity 1
 C         0.060155         0.024360        -0.068300
 C         1.598529        -0.011242        -0.003994
 C         2.172866         1.296011         0.437066
 C         3.343037         0.422454         1.113107
 C         4.027372        -0.526585         0.021634
 C         3.520273        -0.322123        -1.413966
 O         2.025325        -0.514023        -1.274111
 O         3.306484        -1.657602         0.583327
 C         2.381445        -0.795933         1.210055
 H        -0.472049         0.316885         0.872665
 H        -0.200409         0.756835        -0.862846
 H        -0.495953        -0.774941        -0.579309
 H         2.336269         2.071924        -0.371090
 H         1.433824         1.698148         1.141481
 H         3.914056         0.957462         1.865365
 H         5.172846        -0.552722         0.185366
 H         3.643673         0.635747        -1.880841
 H         3.756876        -1.176569        -2.144847
 H         1.825091        -1.158032         2.087789
