19
Iteration:  4188charge 0 multiplicity 1
 C         0.075129        -0.185843        -0.031155
 C         1.569614         0.047074        -0.011477
 C         2.216919         1.313014         0.449439
 C         3.377680         0.432099         1.071131
 C         4.008963        -0.544090         0.013263
 C         3.456318        -0.360060        -1.464609
 O         2.034185        -0.336400        -1.317405
 O         3.297045        -1.664388         0.704338
 C         2.338639        -0.763904         1.107903
 H        -0.402581         0.510709        -0.689388
 H        -0.257797        -1.131856        -0.294529
 H        -0.248518         0.186799         0.953639
 H         2.407326         2.169147        -0.256731
 H         1.705429         1.652468         1.363914
 H         4.037438         0.729449         1.857116
 H         5.054467        -0.721130         0.096773
 H         3.692871         0.671233        -1.777839
 H         3.792408        -1.071299        -2.228593
 H         1.862310        -1.161214         1.975486
