19
Iteration:  3743charge 0 multiplicity 1
 C         0.029598        -0.201525        -0.079112
 C         1.574182        -0.009919        -0.023359
 C         2.277769         1.368416         0.489634
 C         3.398068         0.544295         1.145059
 C         4.005237        -0.557582         0.004970
 C         3.475121        -0.461522        -1.369879
 O         1.970355        -0.349100        -1.360550
 O         3.275683        -1.641545         0.650000
 C         2.377521        -0.717472         1.138333
 H        -0.436800         0.232934         0.800150
 H        -0.347464         0.269522        -0.974359
 H        -0.230956        -1.378675        -0.034334
 H         2.571117         2.025602        -0.388735
 H         1.639546         1.969603         1.239534
 H         4.188126         0.875902         1.786918
 H         5.080753        -0.703429        -0.047036
 H         3.836093         0.343901        -1.924231
 H         3.725713        -1.349730        -1.996522
 H         1.846603        -0.926912         2.046405
