19
Iteration:   525
 C         0.039503        -0.072454        -0.164706
 C         1.534958        -0.019225         0.013460
 C         2.175980         1.313282         0.478171
 C         3.349253         0.458986         0.978110
 C         4.025032        -0.508400         0.090851
 C         3.372149        -0.292199        -1.329596
 O         2.040802        -0.416800        -1.252827
 O         3.388912        -1.720730         0.620891
 C         2.416772        -0.795631         1.144764
 H        -0.510714         0.018222         0.859030
 H        -0.237669         0.882351        -0.696497
 H        -0.274437        -0.936922        -0.779067
 H         2.331123         2.068088        -0.265851
 H         1.571814         1.859298         1.326759
 H         4.015982         0.912929         1.689313
 H         5.137535        -0.661478         0.102103
 H         3.905386         0.493989        -1.814091
 H         3.731435        -1.227864        -2.039708
 H         1.954106        -1.144324         2.005078
