19
Iteration:  2118
 C         0.122947        -0.143435         0.034343
 C         1.575627         0.009687        -0.042961
 C         2.178788         1.362070         0.405425
 C         3.303109         0.450584         1.039855
 C         4.008851        -0.588640         0.049116
 C         3.513860        -0.318977        -1.391178
 O         2.089801        -0.372955        -1.274320
 O         3.235072        -1.700637         0.542124
 C         2.346338        -0.753086         1.182398
 H        -0.331780         0.462204         0.869223
 H        -0.257080         0.282717        -0.819571
 H        -0.206898        -1.176985         0.045227
 H         2.503125         2.048410        -0.489786
 H         1.673028         1.970896         1.137982
 H         3.924575         0.770566         1.801390
 H         5.139311        -0.695651         0.224060
 H         3.816212         0.688040        -1.646423
 H         3.645244        -1.247145        -1.942654
 H         1.763941        -1.065338         2.013337
