19
Iteration:   729
 C         0.017603        -0.121773         0.145481
 C         1.561152        -0.049264        -0.126308
 C         2.275615         1.310445         0.338576
 C         3.271736         0.487831         1.139748
 C         3.985684        -0.498170         0.153209
 C         3.510363        -0.269536        -1.380649
 O         2.065300        -0.462618        -1.461704
 O         3.328843        -1.673705         0.649280
 C         2.339033        -0.754141         1.087728
 H        -0.237326         0.240680         1.137045
 H        -0.368280         0.618992        -0.519173
 H        -0.371169        -1.047248        -0.181796
 H         2.844675         2.010332        -0.467259
 H         1.579114         1.832612         0.974410
 H         3.738307         0.828977         2.006648
 H         5.019272        -0.584583         0.276000
 H         3.916710         0.488410        -1.957271
 H         3.828886        -1.202865        -1.711715
 H         1.672521        -1.190806         1.946693
