19
Iteration:  4656charge 0 multiplicity 1
 C         0.051903        -0.008981        -0.015194
 C         1.577859        -0.043377        -0.042745
 C         2.211254         1.257422         0.422897
 C         3.292568         0.432414         1.167546
 C         4.016523        -0.520932         0.070704
 C         3.443082        -0.353659        -1.434521
 O         1.993901        -0.409568        -1.308576
 O         3.418730        -1.670075         0.559770
 C         2.352718        -0.781758         1.169169
 H        -0.278921         1.024459        -0.141317
 H        -0.372905        -0.575457        -0.789136
 H        -0.322725        -0.240317         0.994849
 H         2.693132         1.925632        -0.298732
 H         1.537682         1.888413         1.007334
 H         3.856363         0.825678         1.980802
 H         5.092069        -0.355516         0.038269
 H         3.670496         0.619753        -1.945213
 H         3.896806        -1.202611        -2.016710
 H         1.739322        -1.334496         1.901084
