19
Iteration:   106charge 0 multiplicity 1
 C         0.025905        -0.172854         0.023474
 C         1.499277        -0.020683        -0.036818
 C         2.254930         1.224069         0.405988
 C         3.366196         0.503392         1.096299
 C         4.023742        -0.527223         0.068916
 C         3.506649        -0.218680        -1.346114
 O         2.068936        -0.529856        -1.364350
 O         3.222683        -1.639320         0.565301
 C         2.413024        -0.674285         1.171182
 H        -0.408318         0.328562         0.884949
 H        -0.434936         0.411360        -0.781321
 H        -0.458657        -1.320667         0.004142
 H         2.701615         1.788186        -0.607563
 H         1.752699         2.099773         1.058712
 H         3.946831         0.864059         2.044753
 H         5.132185        -0.788856         0.205220
 H         3.726294         0.938882        -1.501925
 H         3.944721        -0.716419        -2.295777
 H         1.816034        -1.188300         1.980497
