19
Iteration:  2344charge 0 multiplicity 1
 C        -0.004919        -0.085033         0.029914
 C         1.532653         0.012542        -0.082014
 C         2.268654         1.310251         0.340049
 C         3.354141         0.440798         1.066476
 C         4.082933        -0.532672         0.092049
 C         3.477012        -0.322171        -1.300734
 O         2.019265        -0.452474        -1.294626
 O         3.291052        -1.640528         0.586980
 C         2.346793        -0.765214         1.085942
 H        -0.430912         0.423560         0.929594
 H        -0.411635         0.418554        -0.806820
 H        -0.175384        -1.142793         0.078842
 H         2.661960         1.983811        -0.379166
 H         1.632636         1.717225         1.112877
 H         3.939181         0.815386         1.947346
 H         5.139151        -0.648085         0.252649
 H         3.977461         0.634022        -1.667051
 H         3.737207        -1.132165        -2.028059
 H         1.738735        -1.203903         1.902849
