19
Iteration:  2593
 C         0.005807         0.016813        -0.070737
 C         1.505600        -0.027203        -0.029195
 C         2.292897         1.304879         0.435867
 C         3.311947         0.401665         1.041189
 C         4.013962        -0.458307         0.058016
 C         3.447959        -0.309116        -1.276543
 O         2.056933        -0.555214        -1.289968
 O         3.380666        -1.715917         0.641731
 C         2.328122        -0.752303         1.057212
 H        -0.134713         0.020341         0.968551
 H        -0.387009         0.965032        -0.688696
 H        -0.358359        -0.870118        -0.554578
 H         2.552935         2.118255        -0.245946
 H         1.820408         2.010817         1.114853
 H         3.875945         0.803925         1.980170
 H         5.039453        -0.649879        -0.193133
 H         3.667454         0.781109        -1.702681
 H         3.746802        -0.909930        -2.093246
 H         1.764106        -0.981652         2.003871
