19
Iteration:  3247
 C         0.042091        -0.143497        -0.112016
 C         1.528282        -0.058000         0.040887
 C         2.217907         1.295069         0.467006
 C         3.382310         0.472046         1.039638
 C         4.046961        -0.598027         0.017521
 C         3.432657        -0.332270        -1.345588
 O         2.028143        -0.307218        -1.329968
 O         3.333750        -1.658343         0.711926
 C         2.368988        -0.719033         1.099591
 H        -0.370307         0.208420         0.836020
 H        -0.359683         0.400743        -1.120624
 H        -0.100144        -1.229255        -0.400351
 H         2.318929         2.035592        -0.330366
 H         1.588818         1.723703         1.220924
 H         4.160866         0.858896         1.801204
 H         5.074367        -0.791480         0.076991
 H         3.889071         0.459681        -1.896225
 H         3.446296        -1.197234        -2.019231
 H         1.795148        -0.931752         2.046062
