19
Iteration:   531
 C         0.071683        -0.052331        -0.204062
 C         1.530108         0.001753         0.017687
 C         2.147496         1.261600         0.492798
 C         3.332355         0.478453         1.002914
 C         4.093817        -0.554903         0.063984
 C         3.371817        -0.314488        -1.372238
 O         2.001853        -0.421123        -1.218511
 O         3.354318        -1.683356         0.642844
 C         2.465559        -0.807974         1.183059
 H        -0.550887        -0.075621         0.638632
 H        -0.074321         0.867650        -0.751643
 H        -0.145398        -0.908044        -0.834254
 H         2.349121         2.094570        -0.246147
 H         1.597962         1.796253         1.211420
 H         3.998969         0.998980         1.733917
 H         5.159587        -0.686218         0.036747
 H         3.828022         0.684739        -1.937273
 H         3.534004        -0.955222        -2.151343
 H         1.912963        -1.216483         2.114548
