19
Iteration:  3400
 C         0.013226        -0.239468        -0.054917
 C         1.560279         0.059320         0.000964
 C         2.256747         1.392911         0.430472
 C         3.377691         0.407923         1.033806
 C         4.000577        -0.555715         0.065519
 C         3.459844        -0.380302        -1.310533
 O         2.050098        -0.291129        -1.298617
 O         3.303598        -1.709553         0.586191
 C         2.332495        -0.724475         1.118092
 H        -0.600357         0.339268         0.617720
 H        -0.314785        -0.058981        -1.108807
 H        -0.087465        -1.186494         0.328715
 H         2.508013         2.063985        -0.393593
 H         1.850282         1.876777         1.324712
 H         4.093141         0.827485         1.786699
 H         5.071629        -0.537064         0.008991
 H         3.793347         0.601058        -1.875477
 H         3.717257        -1.272729        -1.879492
 H         1.760954        -1.081665         1.993138
