19
Iteration:   969charge 0 multiplicity 1
 C         0.106403        -0.117012         0.045694
 C         1.569255        -0.027177        -0.044604
 C         2.268262         1.348510         0.310205
 C         3.216994         0.483284         1.088901
 C         3.961972        -0.514442         0.084575
 C         3.529048        -0.303811        -1.365352
 O         2.033271        -0.439945        -1.345761
 O         3.358642        -1.747160         0.678732
 C         2.299314        -0.714420         1.077301
 H        -0.183199         0.144510         1.151103
 H        -0.355508         0.540718        -0.711164
 H        -0.243329        -1.164255         0.004354
 H         2.430947         1.938890        -0.611722
 H         1.691743         1.983310         0.921518
 H         3.763498         0.832375         2.025621
 H         5.028978        -0.500444         0.116671
 H         3.929217         0.627998        -1.782386
 H         3.929136        -1.102567        -2.016276
 H         1.785032        -1.090259         2.017225
