19
Iteration:  3148
 C         0.015274        -0.165165        -0.072508
 C         1.498265         0.024461         0.049318
 C         2.229508         1.393784         0.453779
 C         3.331774         0.406655         0.961770
 C         4.047469        -0.527192         0.073032
 C         3.510981        -0.418883        -1.426458
 O         2.017075        -0.350231        -1.301826
 O         3.318240        -1.670132         0.620367
 C         2.376323        -0.725757         1.226592
 H        -0.532118        -0.203998         0.835118
 H        -0.282818         0.660603        -0.893957
 H         0.136889        -1.079892        -0.708205
 H         2.502369         2.055931        -0.368268
 H         1.728429         1.908094         1.231895
 H         3.855008         0.834470         1.899204
 H         5.062370        -0.653103         0.257786
 H         3.847795         0.588671        -1.907346
 H         3.815502        -1.384739        -1.931284
 H         1.846258        -1.172198         2.109166
