19
Iteration:   922charge 0 multiplicity 1
 C         0.067824        -0.199404        -0.158637
 C         1.573126         0.003179         0.035530
 C         2.102710         1.385094         0.485809
 C         3.368045         0.485648         0.978178
 C         4.017533        -0.490982         0.014320
 C         3.441781        -0.490807        -1.380776
 O         2.066296        -0.291782        -1.218797
 O         3.293402        -1.713922         0.685750
 C         2.428951        -0.703629         1.140893
 H        -0.521875         0.372695         0.549947
 H        -0.132064         0.221588        -1.271155
 H        -0.178585        -1.303439        -0.139417
 H         2.328882         2.048225        -0.332587
 H         1.528093         1.978218         1.333950
 H         4.101408         0.793871         1.646781
 H         5.188477        -0.655921         0.064331
 H         3.861996         0.233452        -1.963309
 H         3.653416        -1.458664        -1.897815
 H         1.877549        -0.923113         1.967469
