19
Iteration:  3092
 C        -0.034574        -0.100106        -0.021979
 C         1.480978         0.009423        -0.046688
 C         2.230127         1.373174         0.409827
 C         3.329348         0.414932         1.006706
 C         4.004623        -0.509649         0.015890
 C         3.538454        -0.380305        -1.379808
 O         2.126124        -0.353591        -1.307625
 O         3.355778        -1.732401         0.701811
 C         2.346995        -0.767700         1.153121
 H        -0.347352        -0.354379         0.983004
 H        -0.658467         0.799530        -0.235529
 H        -0.408593        -1.083957        -0.495801
 H         2.487919         2.010568        -0.439611
 H         1.632151         1.926121         1.079273
 H         3.882467         0.786771         1.873974
 H         5.039490        -0.551352         0.046747
 H         3.850907         0.697652        -1.792622
 H         3.846745        -1.143697        -2.122779
 H         1.681751        -1.109728         1.957408
