19
Iteration:  1579
 C         0.041644        -0.032335        -0.120304
 C         1.506837        -0.002713         0.010900
 C         2.269447         1.359640         0.355554
 C         3.277023         0.474525         1.028327
 C         4.076712        -0.512750         0.069531
 C         3.449585        -0.256317        -1.332432
 O         2.033517        -0.527411        -1.195143
 O         3.334429        -1.744827         0.633089
 C         2.396285        -0.771914         1.093098
 H        -0.447509         0.038349         0.785875
 H        -0.351773         0.753811        -0.840258
 H        -0.306725        -1.044036        -0.455815
 H         2.486114         2.205106        -0.393983
 H         1.581323         1.821565         1.146023
 H         3.816424         0.974066         1.908764
 H         5.216595        -0.673885         0.061436
 H         3.595819         0.622874        -1.822384
 H         3.883616        -1.200612        -1.853410
 H         1.893235        -1.165426         2.009220
