19
Iteration:  3194
 C         0.101967        -0.037514        -0.007230
 C         1.514041        -0.054747         0.007714
 C         2.255848         1.316972         0.344082
 C         3.259685         0.406976         1.170571
 C         4.021015        -0.460492         0.048993
 C         3.527370        -0.304019        -1.394561
 O         2.041511        -0.528766        -1.360358
 O         3.351113        -1.643809         0.610027
 C         2.295049        -0.807880         1.123699
 H        -0.196847         0.762601         0.729186
 H        -0.419260         0.365272        -1.028153
 H        -0.320140        -0.928161         0.309357
 H         2.440221         2.115108        -0.348098
 H         1.717794         1.700725         1.199265
 H         3.989361         0.903077         1.922256
 H         5.094222        -0.530861         0.152972
 H         3.606874         0.877868        -1.422044
 H         3.777473        -0.994335        -2.299247
 H         1.792818        -1.152048         2.071266
