19
Iteration:  4086
 C        -0.039803         0.068048        -0.025513
 C         1.574024        -0.058005        -0.020170
 C         2.188226         1.287973         0.449114
 C         3.240612         0.418898         1.071726
 C         4.028952        -0.429306         0.033583
 C         3.466575        -0.351301        -1.385041
 O         2.062119        -0.475300        -1.279165
 O         3.433531        -1.700779         0.557105
 C         2.400781        -0.826780         1.144828
 H        -0.364533         0.778823        -0.815165
 H        -0.493301        -0.945329        -0.228434
 H        -0.434077         0.348156         0.899274
 H         2.445382         2.096854        -0.382063
 H         1.601979         1.834175         1.255296
 H         3.911647         0.549332         1.987628
 H         5.125239        -0.329456         0.264392
 H         3.802689         0.628673        -1.870863
 H         3.740459        -1.146793        -2.043870
 H         1.889267        -1.238115         2.066636
