19
Iteration:  1914charge 0 multiplicity 1
 C         0.035033        -0.076062        -0.184689
 C         1.535883        -0.040032         0.016425
 C         2.201431         1.307733         0.487087
 C         3.376866         0.466598         1.073380
 C         4.002454        -0.575850        -0.021364
 C         3.445450        -0.391033        -1.340385
 O         2.000711        -0.410817        -1.254724
 O         3.368327        -1.633797         0.686112
 C         2.402978        -0.713743         1.165919
 H        -0.575567         0.004730         0.686100
 H        -0.139419         0.706316        -0.906096
 H        -0.240001        -0.968309        -0.755202
 H         2.445941         1.980902        -0.353066
 H         1.656099         1.938229         1.243193
 H         4.048010         0.780496         1.923094
 H         5.040625        -0.562869        -0.236107
 H         3.796214         0.485062        -1.962229
 H         3.717523        -1.163520        -2.084236
 H         1.808150        -1.139607         2.001425
