19
Iteration:  2765charge 0 multiplicity 1
 C        -0.016400         0.037271        -0.117330
 C         1.478526        -0.006392        -0.060033
 C         2.168911         1.335342         0.467517
 C         3.270357         0.438091         1.089869
 C         4.011885        -0.459328         0.039366
 C         3.444652        -0.347793        -1.340269
 O         2.050010        -0.438160        -1.313463
 O         3.457759        -1.769243         0.634925
 C         2.464353        -0.853023         1.134708
 H        -0.463397         0.227073         0.836108
 H        -0.222283         0.980499        -0.626728
 H        -0.454155        -0.919317        -0.446220
 H         2.499983         2.115668        -0.311936
 H         1.722903         1.814751         1.341380
 H         3.867303         0.776819         1.957806
 H         5.151625        -0.574110         0.180303
 H         3.674382         0.544280        -1.966056
 H         3.677180        -1.236419        -2.017302
 H         2.020719        -1.068502         2.146410
