19
Iteration:   425charge 0 multiplicity 1
 C         0.065685        -0.074819        -0.216217
 C         1.491994         0.030585         0.028140
 C         2.175667         1.328279         0.541193
 C         3.337006         0.456177         1.004728
 C         4.063535        -0.537581         0.054376
 C         3.423055        -0.324802        -1.382945
 O         2.000321        -0.467835        -1.256170
 O         3.336989        -1.705666         0.599412
 C         2.482515        -0.727348         1.217970
 H        -0.618374         0.229583         0.625406
 H        -0.217839         0.487875        -1.126278
 H        -0.058708        -1.138766        -0.508665
 H         2.349109         2.091927        -0.179659
 H         1.667290         1.656992         1.413944
 H         3.860460         0.775838         1.849684
 H         5.114202        -0.619938         0.086409
 H         3.599146         0.756253        -1.822196
 H         3.723775        -1.193237        -2.142684
 H         2.173104        -0.999273         2.153900
