19
Iteration:  4081
 C        -0.019501         0.052198        -0.051542
 C         1.541281        -0.082754         0.002505
 C         2.171375         1.340756         0.453903
 C         3.267029         0.438096         1.077428
 C         4.050782        -0.413164         0.017726
 C         3.500364        -0.317711        -1.389881
 O         2.048529        -0.486095        -1.282384
 O         3.383877        -1.720596         0.559980
 C         2.423144        -0.851171         1.185016
 H        -0.274960         0.843896        -0.753614
 H        -0.468544        -0.882402        -0.337626
 H        -0.502932         0.278988         1.016080
 H         2.576759         1.961765        -0.253059
 H         1.557444         1.907594         1.114259
 H         3.887456         0.600511         1.908249
 H         5.125012        -0.327924         0.097398
 H         3.706332         0.561660        -1.960068
 H         3.817856        -1.229976        -2.000804
 H         1.909219        -1.327826         1.990161
