19
Iteration:   912charge 0 multiplicity 1
 C         0.115679        -0.197556        -0.201046
 C         1.519440         0.016800         0.069885
 C         2.185825         1.351215         0.449407
 C         3.315288         0.493336         0.995154
 C         4.047598        -0.519067        -0.040091
 C         3.420319        -0.466371        -1.384803
 O         2.094611        -0.310011        -1.222309
 O         3.285362        -1.670260         0.661880
 C         2.382733        -0.729253         1.275491
 H        -0.512975         0.337868         0.501960
 H        -0.215657         0.235768        -1.231976
 H        -0.150930        -1.275685        -0.272140
 H         2.199432         1.987080        -0.384399
 H         1.777682         1.834303         1.358828
 H         3.906198         1.032963         1.641111
 H         5.190320        -0.633478        -0.028691
 H         3.764443         0.354794        -1.960539
 H         3.572544        -1.422969        -1.970691
 H         2.010404        -1.070860         2.159311
