19
Iteration:  1590charge 0 multiplicity 1
 C         0.010969        -0.057963        -0.064534
 C         1.541064        -0.029526         0.008532
 C         2.230971         1.319033         0.347970
 C         3.330333         0.461753         1.052797
 C         4.039477        -0.513234         0.055390
 C         3.510986        -0.297350        -1.327606
 O         2.093822        -0.542963        -1.194550
 O         3.333751        -1.640585         0.550344
 C         2.256751        -0.756794         1.143657
 H        -0.298827         0.293490         0.878077
 H        -0.414127         0.653189        -0.831180
 H        -0.356343        -1.086528        -0.280818
 H         2.630653         1.876864        -0.568997
 H         1.760777         2.016224         1.113851
 H         3.865470         0.892047         1.969219
 H         5.170076        -0.687386         0.150185
 H         3.772207         0.667776        -1.663779
 H         3.792472        -0.965282        -2.236893
 H         1.653917        -1.160867         1.990814
