19
Iteration:    17charge 0 multiplicity 1
 C         0.021862        -0.109616        -0.014121
 C         1.516318        -0.025904        -0.011185
 C         2.044894         1.387111         0.422820
 C         3.290432         0.504291         1.065724
 C         4.107602        -0.546205         0.030809
 C         3.477644        -0.474958        -1.364032
 O         2.025873        -0.278803        -1.317140
 O         3.480231        -1.740308         0.691655
 C         2.408575        -0.765828         1.037228
 H        -0.387274         0.152585         1.024589
 H        -0.199484         0.717721        -0.754517
 H        -0.438124        -1.017449        -0.470298
 H         2.280250         2.191237        -0.462586
 H         1.469341         1.837224         1.275215
 H         3.765449         0.734039         2.048196
 H         5.210875        -0.602223         0.020940
 H         3.926951         0.365843        -2.007220
 H         3.562759        -1.552338        -1.762087
 H         1.773200        -1.066120         1.894536
