19
Iteration:  2019charge 0 multiplicity 1
 C        -0.026567         0.033155        -0.115745
 C         1.456142         0.018736        -0.004937
 C         2.172649         1.331916         0.508985
 C         3.341665         0.472634         1.048403
 C         4.121043        -0.499537         0.026398
 C         3.522295        -0.341591        -1.373181
 O         2.001174        -0.531353        -1.234472
 O         3.383961        -1.722828         0.594181
 C         2.386626        -0.774677         1.107262
 H        -0.588903         0.297782         0.860288
 H        -0.306228         0.807304        -0.746550
 H        -0.276186        -0.965714        -0.456244
 H         2.509368         2.155328        -0.196146
 H         1.495436         1.577432         1.289778
 H         4.001661         0.737040         1.816790
 H         5.287553        -0.542817         0.027072
 H         3.817823         0.599206        -1.993185
 H         3.785305        -1.293285        -1.903706
 H         1.888917        -1.118523         1.986864
