19
Iteration:  2301
 C         0.014034        -0.018206        -0.099527
 C         1.553458        -0.013889        -0.025811
 C         2.265074         1.253661         0.435753
 C         3.346917         0.439505         1.106830
 C         4.002030        -0.492211        -0.005869
 C         3.455259        -0.377281        -1.420861
 O         2.001754        -0.419388        -1.294395
 O         3.334316        -1.627383         0.670848
 C         2.397174        -0.792495         1.161588
 H        -0.430557         0.653263         0.738909
 H        -0.308454         0.482768        -0.989590
 H        -0.304753        -1.060025        -0.008884
 H         2.437426         1.898536        -0.344339
 H         1.695209         1.526947         1.265973
 H         3.967570         0.795138         1.937056
 H         5.098273        -0.691241         0.033250
 H         3.673722         0.661878        -1.737874
 H         4.004133        -1.189777        -1.952153
 H         1.844949        -1.237705         2.014044
