19
Iteration:   550
 C        -0.052117        -0.048059        -0.264539
 C         1.520729        -0.070242         0.103636
 C         2.243606         1.307887         0.511889
 C         3.386927         0.433938         1.100882
 C         3.965923        -0.519520        -0.065340
 C         3.431039        -0.289662        -1.400979
 O         2.037205        -0.507550        -1.266340
 O         3.396967        -1.684127         0.624772
 C         2.400394        -0.688909         1.247607
 H        -0.658993        -0.013467         0.643037
 H        -0.315929         0.873569        -0.840021
 H        -0.291146        -0.979703        -0.841438
 H         2.270787         2.116357        -0.274969
 H         1.586819         1.856449         1.367490
 H         4.109459         0.682686         1.989839
 H         5.111408        -0.685824        -0.112617
 H         3.955778         0.714055        -1.794977
 H         3.984763        -0.932932        -2.137271
 H         2.005170        -0.996827         2.277550
