19
Iteration:  2069charge 0 multiplicity 1
 C         0.030807        -0.108550        -0.064028
 C         1.547775         0.023432        -0.019067
 C         2.299661         1.361336         0.394391
 C         3.301422         0.436205         1.073664
 C         4.009331        -0.508777         0.025621
 C         3.442553        -0.344463        -1.372028
 O         1.990563        -0.386118        -1.315141
 O         3.382468        -1.733218         0.705293
 C         2.382812        -0.785995         1.096798
 H        -0.319457        -0.285013         0.939614
 H        -0.532625         0.891274        -0.344000
 H        -0.261451        -0.992660        -0.684073
 H         2.510712         2.027388        -0.426267
 H         1.668825         1.925088         1.172393
 H         4.018737         0.694428         1.950061
 H         5.061101        -0.677100        -0.066237
 H         3.716030         0.628389        -1.596343
 H         3.813894        -1.174434        -1.965100
 H         1.648429        -0.928750         1.958523
