19
Iteration:  2639
 C        -0.021885        -0.087818        -0.117195
 C         1.565946         0.025823        -0.000976
 C         2.220773         1.322964         0.487292
 C         3.375971         0.380619         1.012862
 C         4.015467        -0.538490         0.035323
 C         3.463123        -0.386917        -1.324803
 O         2.054464        -0.339001        -1.257144
 O         3.343010        -1.687303         0.621004
 C         2.408189        -0.750240         1.108352
 H        -0.534355         0.391382         0.767117
 H        -0.393106         0.352435        -1.032135
 H        -0.436148        -1.101398        -0.278930
 H         2.325843         2.063080        -0.282668
 H         1.578013         1.878904         1.197445
 H         3.891604         0.658436         1.950872
 H         5.056565        -0.505957         0.110111
 H         3.772755         0.446619        -2.008925
 H         3.602233        -1.287149        -1.889826
 H         1.915235        -0.986509         2.042308
