19
Iteration:   312charge 0 multiplicity 1
 C         0.020693        -0.184155        -0.157251
 C         1.513973        -0.006123         0.086671
 C         2.244330         1.429552         0.507728
 C         3.365611         0.440915         0.968820
 C         4.038130        -0.546135         0.028037
 C         3.464341        -0.323929        -1.350084
 O         1.996627        -0.423225        -1.243582
 O         3.346741        -1.709801         0.592574
 C         2.352775        -0.690046         1.165482
 H        -0.555416         0.464423         0.521228
 H        -0.144372         0.130585        -1.223027
 H        -0.266914        -1.315709        -0.279593
 H         2.447961         2.114425        -0.393879
 H         1.786001         1.861047         1.381875
 H         4.047833         0.900676         1.859272
 H         5.131470        -0.656219         0.067450
 H         3.813187         0.714819        -1.758836
 H         3.813007        -1.268287        -2.062687
 H         1.895168        -1.178584         2.121053
