19
Iteration:  2594
 C         0.011019         0.026598        -0.080517
 C         1.503831        -0.036193        -0.026335
 C         2.287142         1.295811         0.435792
 C         3.306497         0.408256         1.039840
 C         4.012483        -0.459956         0.055657
 C         3.440798        -0.306461        -1.287530
 O         2.064331        -0.553630        -1.283375
 O         3.375659        -1.712979         0.639939
 C         2.334388        -0.745418         1.062003
 H        -0.131139         0.027541         1.013882
 H        -0.361846         0.967052        -0.674549
 H        -0.344118        -0.908899        -0.536741
 H         2.544507         2.110141        -0.235532
 H         1.799737         2.012296         1.134665
 H         3.895807         0.751307         1.996951
 H         5.021873        -0.655966        -0.168443
 H         3.682330         0.759512        -1.717817
 H         3.776674        -0.926387        -2.096887
 H         1.786020        -0.994491         1.998813
