19
Iteration:  3158
 C        -0.006548        -0.140643        -0.108739
 C         1.547121         0.006645         0.028303
 C         2.268094         1.327284         0.398212
 C         3.367403         0.487891         1.023089
 C         4.119549        -0.567756         0.073313
 C         3.461035        -0.382497        -1.298219
 O         1.984220        -0.367930        -1.299643
 O         3.336076        -1.672518         0.615435
 C         2.332029        -0.737895         1.146397
 H        -0.520003         0.049913         0.824976
 H        -0.474215         0.608430        -0.895770
 H        -0.361172        -1.227332        -0.440988
 H         2.244519         2.029185        -0.435629
 H         1.724239         1.744475         1.220208
 H         3.980828         0.743835         1.946939
 H         5.172552        -0.572328         0.091789
 H         3.848158         0.585850        -1.723770
 H         3.793292        -1.064206        -2.075649
 H         1.867437        -1.086250         2.093415
