19
Iteration:  4526charge 0 multiplicity 1
 C         0.061856         0.077733         0.020623
 C         1.504105        -0.109379         0.003111
 C         2.167367         1.230111         0.415070
 C         3.286956         0.377912         1.097805
 C         4.070139        -0.473677         0.011366
 C         3.471081        -0.271294        -1.358981
 O         2.015003        -0.422680        -1.311602
 O         3.425028        -1.664313         0.544521
 C         2.360999        -0.859911         1.179243
 H        -0.161903         0.188200        -1.092925
 H        -0.390279        -0.802316         0.449501
 H        -0.356184         0.996002         0.648675
 H         2.340359         1.736823        -0.525436
 H         1.540546         1.806224         1.037256
 H         3.896377         0.788261         1.870584
 H         5.157615        -0.559245        -0.005397
 H         3.738960         0.773713        -1.680945
 H         3.838206        -0.923502        -2.074733
 H         1.751562        -1.197162         2.032709
