19
Iteration:   310charge 0 multiplicity 1
 C         0.035231        -0.179442        -0.164681
 C         1.514908        -0.007356         0.091090
 C         2.225121         1.425879         0.496835
 C         3.373426         0.422514         0.964234
 C         4.039282        -0.548049         0.019458
 C         3.457893        -0.325831        -1.360018
 O         2.000580        -0.416515        -1.233577
 O         3.358826        -1.709052         0.599643
 C         2.343255        -0.694392         1.173053
 H        -0.606422         0.484812         0.500174
 H        -0.065537         0.140763        -1.236848
 H        -0.250677        -1.258742        -0.242527
 H         2.417089         2.147368        -0.369843
 H         1.729383         1.927491         1.435612
 H         4.075922         0.815934         1.852340
 H         5.160417        -0.595173         0.084555
 H         3.782222         0.673756        -1.827812
 H         3.764022        -1.216541        -2.014662
 H         1.834872        -1.152089         2.131574
