19
Iteration:  4479
 C         0.032708        -0.220778        -0.111044
 C         1.504642         0.089399         0.061794
 C         2.245743         1.346365         0.517657
 C         3.441611         0.437071         1.043781
 C         3.995068        -0.571074         0.017403
 C         3.462232        -0.324325        -1.449932
 O         1.983236        -0.357402        -1.278657
 O         3.313534        -1.700607         0.641085
 C         2.361757        -0.711537         1.104588
 H        -0.550727         0.564443        -0.744128
 H         0.023465        -1.279126        -0.485588
 H        -0.287517        -0.260273         0.908162
 H         2.514884         2.138314        -0.226298
 H         1.898395         1.947117         1.417852
 H         4.094433         0.737264         1.866146
 H         5.086253        -0.764161         0.138008
 H         3.874736         0.588138        -1.808805
 H         3.768664        -1.107525        -2.251297
 H         1.761789        -1.094588         1.981942
