19
Iteration:   918charge 0 multiplicity 1
 C         0.093479        -0.203867        -0.179452
 C         1.562489         0.007508         0.045999
 C         2.128188         1.376521         0.484695
 C         3.327811         0.461621         0.973745
 C         4.045851        -0.485888        -0.004450
 C         3.382696        -0.495888        -1.373682
 O         2.115296        -0.298033        -1.216636
 O         3.279531        -1.699135         0.680514
 C         2.419090        -0.707089         1.185880
 H        -0.508483         0.466562         0.471728
 H        -0.190066         0.189912        -1.159946
 H        -0.118269        -1.281327        -0.268308
 H         2.268986         2.019055        -0.459525
 H         1.621229         1.950119         1.366440
 H         4.118429         1.001232         1.642538
 H         5.142692        -0.656040        -0.004233
 H         3.811058         0.396907        -2.043547
 H         3.590414        -1.404543        -1.927244
 H         1.894717        -1.079319         2.181536
