19
Iteration:  3132charge 0 multiplicity 1
 C         0.038879        -0.205419        -0.147744
 C         1.601737         0.049237         0.017907
 C         2.228206         1.355665         0.494076
 C         3.327594         0.549008         1.121195
 C         3.974676        -0.535001        -0.053169
 C         3.451475        -0.453074        -1.399332
 O         2.094506        -0.332775        -1.266862
 O         3.270018        -1.700558         0.644873
 C         2.374985        -0.720757         1.158674
 H        -0.260212        -0.398775         0.980534
 H        -0.524916         0.576954        -0.485451
 H        -0.295593        -1.082963        -0.798371
 H         2.413728         2.010559        -0.403462
 H         1.568700         1.918236         1.273022
 H         4.084018         0.809353         1.795725
 H         5.143335        -0.574103        -0.072929
 H         3.977589         0.250357        -1.960088
 H         3.686972        -1.355069        -1.932028
 H         1.865916        -1.011555         2.063986
