19
Iteration:   121
 C         0.084941        -0.110560         0.043811
 C         1.575883        -0.050948        -0.040036
 C         2.241373         1.352879         0.330331
 C         3.292594         0.451649         1.089897
 C         4.011272        -0.509436         0.061785
 C         3.461561        -0.259133        -1.325798
 O         2.052022        -0.463110        -1.337533
 O         3.335883        -1.677675         0.612079
 C         2.303609        -0.794459         1.110298
 H        -0.264652         0.422923         0.913285
 H        -0.382980         0.258519        -0.855564
 H        -0.119889        -1.123484         0.184268
 H         2.438285         2.072990        -0.326614
 H         1.562593         1.755039         1.069943
 H         3.885603         0.880590         1.865910
 H         5.126974        -0.603690         0.038057
 H         3.724553         0.733903        -1.705188
 H         3.909308        -0.923319        -1.979490
 H         1.722205        -1.105463         1.961107
