19
Iteration:  3783charge 0 multiplicity 1
 C        -0.048998         0.029425         0.017306
 C         1.495834        -0.011755        -0.046010
 C         2.164870         1.353691         0.393434
 C         3.308652         0.454146         1.026912
 C         4.056928        -0.549463         0.093276
 C         3.479269        -0.323165        -1.353493
 O         2.019320        -0.530343        -1.289094
 O         3.430712        -1.709544         0.623178
 C         2.437400        -0.790752         1.093498
 H        -0.268675         1.077609         0.414606
 H        -0.559136        -0.055536        -1.026275
 H        -0.517939        -0.669244         0.570266
 H         2.524591         2.051242        -0.381873
 H         1.593556         2.110327         0.976591
 H         4.003297         0.887298         1.823548
 H         5.169905        -0.690559         0.234307
 H         3.873277         0.750607        -1.543342
 H         3.968279        -1.082012        -2.069035
 H         1.749533        -1.417385         1.762411
