19
Iteration:  4971
 C         0.005675         0.024193        -0.065330
 C         1.526778        -0.058170         0.011255
 C         2.154027         1.283138         0.464469
 C         3.316560         0.518876         1.058918
 C         3.952773        -0.537278         0.030229
 C         3.451577        -0.319267        -1.347998
 O         2.044511        -0.403762        -1.334578
 O         3.463898        -1.743801         0.597265
 C         2.415421        -0.846790         1.174304
 H         0.050140         0.981103        -0.766110
 H        -0.475187        -0.902165        -0.336671
 H        -0.480948         0.329780         0.908900
 H         2.460578         1.798058        -0.430036
 H         1.590474         1.937909         1.125334
 H         3.857853         0.864328         1.922574
 H         5.051134        -0.670242        -0.038152
 H         3.628230         0.776144        -1.720964
 H         3.787812        -1.136559        -2.012152
 H         1.987739        -1.320586         2.039168
