19
Iteration:  1178
 C         0.041425        -0.012956        -0.117532
 C         1.540617         0.023395        -0.058752
 C         2.145923         1.300428         0.574820
 C         3.242795         0.463154         1.035176
 C         3.983199        -0.454415         0.045423
 C         3.477058        -0.553404        -1.443276
 O         2.064201        -0.374306        -1.384682
 O         3.462654        -1.683079         0.705300
 C         2.349925        -0.754048         1.180446
 H        -0.282092        -0.056094         1.031955
 H        -0.423741         0.810050        -0.520843
 H        -0.220685        -0.959151        -0.552160
 H         2.442224         2.177620        -0.205898
 H         1.513770         1.786989         1.298963
 H         4.061712         0.900274         1.757266
 H         5.046648        -0.481367         0.214689
 H         4.018702         0.147297        -2.133695
 H         3.740013        -1.462481        -1.954981
 H         1.767377        -1.010613         2.142369
