19
Iteration:  4769
 C         0.108521        -0.248291         0.021016
 C         1.550163         0.025072        -0.059357
 C         2.255465         1.368626         0.470456
 C         3.340813         0.434934         1.035138
 C         3.953008        -0.541826         0.051252
 C         3.520579        -0.389682        -1.321828
 O         2.066634        -0.216104        -1.350219
 O         3.200071        -1.716719         0.519512
 C         2.363670        -0.731635         1.173831
 H        -0.590880         0.058779        -0.753110
 H        -0.050836        -1.389212        -0.059105
 H        -0.260271         0.213769         1.066745
 H         2.639558         2.154768        -0.195449
 H         1.828769         1.759297         1.392835
 H         3.889096         1.010483         1.862066
 H         5.057021        -0.746987         0.026069
 H         3.886242         0.542793        -1.903455
 H         3.799378        -1.297456        -1.849441
 H         1.886112        -1.299410         2.055031
