19
Iteration:  3045
 C        -0.022331        -0.056507        -0.109559
 C         1.527604         0.010906        -0.068128
 C         2.301304         1.378238         0.484825
 C         3.269187         0.402083         1.144233
 C         4.039063        -0.513426        -0.001059
 C         3.460162        -0.289626        -1.394243
 O         2.073307        -0.555882        -1.226143
 O         3.358798        -1.648968         0.587658
 C         2.370762        -0.797488         1.137919
 H        -0.442014         0.661062         0.723317
 H        -0.244859         0.540997        -0.935244
 H        -0.538384        -1.072939         0.040853
 H         2.590220         2.179522        -0.205481
 H         1.452464         1.781756         1.109340
 H         3.945525         0.767400         1.891465
 H         5.153414        -0.493764         0.066478
 H         3.729032         0.752254        -1.880483
 H         3.659354        -1.093687        -2.081993
 H         1.899321        -1.283364         1.966145
