19
Iteration:  4810charge 0 multiplicity 1
 C        -0.030625         0.011774        -0.136015
 C         1.463986        -0.018882         0.006305
 C         2.299442         1.308207         0.460805
 C         3.313247         0.415210         1.003725
 C         4.069699        -0.525914         0.017691
 C         3.411507        -0.249794        -1.308534
 O         2.021694        -0.458504        -1.252626
 O         3.428428        -1.682849         0.620520
 C         2.381194        -0.874011         1.121689
 H        -0.330352         0.878113        -0.628097
 H        -0.541633        -0.830248        -0.560944
 H        -0.476080        -0.023096         0.898934
 H         2.509081         2.057708        -0.356314
 H         1.739237         1.731968         1.334438
 H         4.027520         0.662915         1.881370
 H         5.189105        -0.542772         0.033978
 H         3.743221         0.757110        -1.631343
 H         3.710245        -1.017672        -2.109494
 H         1.792198        -1.137297         2.068104
