19
Iteration:  4089
 C        -0.036634         0.056260        -0.021475
 C         1.562849        -0.034461        -0.030620
 C         2.200957         1.271592         0.444547
 C         3.243269         0.403383         1.080791
 C         4.020617        -0.447055         0.044779
 C         3.452380        -0.362837        -1.376471
 O         2.061964        -0.467149        -1.278234
 O         3.461308        -1.682926         0.560042
 C         2.381233        -0.817194         1.114229
 H        -0.400681         0.730496        -0.838281
 H        -0.479501        -0.917803        -0.187588
 H        -0.382692         0.450604         0.929770
 H         2.348641         2.038720        -0.336737
 H         1.641012         1.726977         1.263886
 H         3.893633         0.631996         1.988652
 H         5.079615        -0.387766         0.261886
 H         3.830129         0.670764        -1.820372
 H         3.767454        -1.150328        -2.076560
 H         1.902109        -1.155393         2.038645
