19
Iteration:  2649charge 0 multiplicity 1
 C        -0.019717        -0.165638        -0.089327
 C         1.504049         0.073151        -0.038800
 C         2.243386         1.364033         0.449521
 C         3.325928         0.353844         1.088805
 C         4.101807        -0.535500         0.010595
 C         3.465851        -0.403468        -1.424380
 O         2.026619        -0.287261        -1.253697
 O         3.379596        -1.717529         0.685282
 C         2.302657        -0.720235         1.108201
 H        -0.525631         0.334857         0.710987
 H        -0.234887         0.450013        -0.990044
 H        -0.101487        -1.209871        -0.001561
 H         2.488352         2.097487        -0.303343
 H         1.699333         1.723859         1.335468
 H         4.058745         0.594750         1.905930
 H         5.120133        -0.762552        -0.093061
 H         4.014939         0.524076        -1.874525
 H         3.646397        -1.237733        -2.047502
 H         1.708761        -0.949480         2.004794
