19
Iteration:  1304charge 0 multiplicity 1
 C         0.057151         0.013395        -0.098794
 C         1.560748        -0.056768        -0.017839
 C         2.197776         1.239543         0.421670
 C         3.335383         0.487926         0.999869
 C         3.974129        -0.461468         0.123483
 C         3.424261        -0.471263        -1.360699
 O         1.986639        -0.296518        -1.345344
 O         3.445622        -1.652935         0.719873
 C         2.382243        -0.851886         1.109778
 H        -0.400436         0.329823         0.836188
 H        -0.256023         0.703390        -1.060557
 H        -0.341905        -1.036192        -0.292483
 H         2.373745         1.885494        -0.395738
 H         1.652610         1.743330         1.322884
 H         3.836364         0.875512         1.860019
 H         5.120070        -0.508285         0.030384
 H         3.787911         0.271220        -1.986761
 H         3.665120        -1.542102        -1.672243
 H         1.931664        -1.240249         2.042998
