19
Iteration:  3964
 C        -0.017612        -0.054912        -0.087617
 C         1.494773         0.007700        -0.056054
 C         2.248817         1.295079         0.519879
 C         3.350406         0.408131         1.099948
 C         4.067646        -0.504519        -0.000002
 C         3.441477        -0.327315        -1.418743
 O         1.984042        -0.444746        -1.343461
 O         3.386871        -1.687268         0.630506
 C         2.403634        -0.751029         1.172165
 H        -0.381891         0.633640        -0.817660
 H        -0.308954        -1.069806        -0.244546
 H        -0.350082         0.275815         0.911866
 H         2.429329         2.132184        -0.251697
 H         1.764478         1.747606         1.436956
 H         3.756565         0.737896         2.071077
 H         5.173687        -0.533018         0.087818
 H         3.808315         0.715012        -1.813948
 H         3.866913        -1.150106        -1.968519
 H         1.899993        -1.178731         2.041096
