19
Iteration:  4753
 C        -0.007334        -0.325783         0.065597
 C         1.546928         0.098834         0.065479
 C         2.262284         1.372055         0.483703
 C         3.348317         0.409715         1.073179
 C         4.081375        -0.572727         0.027492
 C         3.541416        -0.387226        -1.398091
 O         2.091591        -0.208584        -1.302221
 O         3.211993        -1.693762         0.520413
 C         2.304598        -0.696608         1.040715
 H        -0.456249         0.035689        -0.894376
 H         0.069872        -1.362975         0.119750
 H        -0.496652         0.170600         0.829827
 H         2.412231         1.994185        -0.425476
 H         1.666589         2.070097         1.142134
 H         3.949597         0.497886         1.942598
 H         5.121600        -0.720462         0.286903
 H         4.075403         0.372182        -1.933488
 H         3.669964        -1.379023        -1.963827
 H         1.660822        -0.929451         1.910120
