19
Iteration:  1072
 C        -0.032531        -0.210915        -0.003103
 C         1.489169         0.073151        -0.050684
 C         2.228527         1.368066         0.419509
 C         3.282946         0.492200         1.083143
 C         4.043147        -0.568031         0.057269
 C         3.565587        -0.474718        -1.411542
 O         2.090903        -0.269807        -1.303239
 O         3.390535        -1.695233         0.668204
 C         2.300357        -0.710011         1.067447
 H        -0.358247         0.111015         1.019514
 H        -0.610992         0.308301        -0.832535
 H        -0.225091        -1.297574        -0.026921
 H         2.520485         1.861868        -0.467267
 H         1.762408         2.017707         1.135728
 H         3.783519         0.800956         1.985071
 H         5.111335        -0.740546         0.144368
 H         3.957600         0.456798        -1.917433
 H         3.670604        -1.451675        -1.873354
 H         1.626192        -1.174756         1.853175
