19
Iteration:  4477charge 0 multiplicity 1
 C         0.046711        -0.222203        -0.100827
 C         1.488926         0.077569         0.057394
 C         2.247731         1.334354         0.502185
 C         3.439225         0.442928         1.044706
 C         3.982178        -0.575202         0.036319
 C         3.449944        -0.321259        -1.441172
 O         1.986236        -0.336903        -1.291810
 O         3.306139        -1.707592         0.644278
 C         2.399130        -0.718776         1.106063
 H        -0.529358         0.550596        -0.655905
 H         0.063840        -1.279011        -0.569740
 H        -0.322579        -0.258143         0.887497
 H         2.466800         2.175046        -0.259427
 H         1.906570         1.969205         1.430852
 H         4.122588         0.843415         1.880283
 H         5.069115        -0.830059         0.144196
 H         3.893717         0.578267        -1.831858
 H         3.756493        -1.113712        -2.258648
 H         1.706808        -1.050328         1.943492
