19
Iteration:   223charge 0 multiplicity 1
 C         0.057304        -0.174224         0.043528
 C         1.547374        -0.017163         0.007655
 C         2.288285         1.325771         0.339847
 C         3.369407         0.477185         1.071415
 C         3.966099        -0.467094         0.070266
 C         3.486444        -0.231413        -1.307754
 O         2.059091        -0.486864        -1.368861
 O         3.228441        -1.727202         0.582368
 C         2.376430        -0.710069         1.136406
 H        -0.332213        -0.251865         1.106727
 H        -0.560999         0.591641        -0.472233
 H        -0.105060        -1.009609        -0.638587
 H         2.616366         1.818917        -0.577749
 H         1.683266         1.885185         0.935452
 H         3.868846         0.672490         2.088468
 H         5.050018        -0.425304         0.050964
 H         3.725189         0.824439        -1.633847
 H         4.048646        -1.082212        -1.885241
 H         1.769996        -0.958142         2.075396
