19
Iteration:  4548charge 0 multiplicity 1
 C        -0.130647        -0.029130        -0.008116
 C         1.499360        -0.012949        -0.082771
 C         2.304608         1.353822         0.482593
 C         3.336519         0.437441         1.054964
 C         4.038003        -0.502598         0.045999
 C         3.478813        -0.245647        -1.369461
 O         2.013013        -0.433841        -1.313110
 O         3.466385        -1.788409         0.643251
 C         2.387016        -0.863505         1.070050
 H        -0.683181         0.165458        -0.976277
 H        -0.544177        -0.833711         0.612158
 H        -0.439399         0.940942         0.649649
 H         2.440210         1.987886        -0.374891
 H         1.616547         1.770473         1.143962
 H         3.948733         0.747637         1.893710
 H         5.123253        -0.417201         0.071065
 H         3.652036         0.770086        -1.745656
 H         3.854347        -0.920041        -2.055025
 H         1.867245        -1.234876         1.982419
