19
Iteration:  4623charge 0 multiplicity 1
 C        -0.008565        -0.264239        -0.028327
 C         1.539915         0.021033        -0.052253
 C         2.227933         1.331202         0.457909
 C         3.445503         0.443606         1.008895
 C         4.073663        -0.613756         0.028622
 C         3.453447        -0.338423        -1.353141
 O         2.023885        -0.231813        -1.282790
 O         3.285413        -1.723009         0.672719
 C         2.332885        -0.659102         1.073614
 H        -0.569682         0.583585        -0.479679
 H        -0.222605        -1.158678        -0.531628
 H        -0.197461        -0.462070         1.031575
 H         2.532558         2.077502        -0.264767
 H         1.871708         1.740456         1.386541
 H         4.062069         0.726506         1.811187
 H         5.171572        -0.724012        -0.026709
 H         3.787259         0.618645        -1.772906
 H         3.660554        -1.158571        -2.098882
 H         1.639080        -0.924573         1.887745
