19
Iteration:  2789
 C        -0.008138        -0.102510        -0.047971
 C         1.512884        -0.032223        -0.000713
 C         2.257266         1.318270         0.470085
 C         3.339050         0.452789         1.101072
 C         4.063249        -0.514243         0.024589
 C         3.522168        -0.382143        -1.319316
 O         2.056331        -0.396878        -1.315286
 O         3.338398        -1.629839         0.543094
 C         2.303775        -0.757976         1.118379
 H        -0.544215         0.133358         0.807768
 H        -0.396658         0.693659        -0.809159
 H        -0.218984        -1.092281        -0.259619
 H         2.339575         2.034545        -0.358182
 H         1.785374         1.724083         1.367581
 H         3.990141         0.782735         1.926040
 H         5.173558        -0.791426         0.140512
 H         3.837642         0.510669        -1.809422
 H         3.633689        -1.194381        -1.989574
 H         1.666896        -1.075482         1.987981
