19
Iteration:  1937
 C         0.069668        -0.172883        -0.089381
 C         1.540975         0.069021        -0.020555
 C         2.219169         1.360638         0.449397
 C         3.396378         0.509455         1.026275
 C         3.976316        -0.525132         0.070901
 C         3.516928        -0.361510        -1.401846
 O         2.039580        -0.394970        -1.326070
 O         3.240480        -1.770637         0.620441
 C         2.397708        -0.709404         1.215091
 H        -0.290293         0.074862         0.825775
 H        -0.459131         0.328088        -0.929089
 H        -0.151495        -1.230232        -0.219765
 H         2.281873         2.245485        -0.167479
 H         1.713511         1.748008         1.414982
 H         4.019990         0.850457         1.901832
 H         5.009681        -0.519808         0.276989
 H         3.860102         0.457379        -2.128900
 H         3.678192        -1.194587        -2.061450
 H         1.912787        -1.072383         2.181277
