19
Iteration:  2856
 C        -0.017978        -0.166675        -0.038515
 C         1.474236         0.042588        -0.043547
 C         2.215287         1.380355         0.429703
 C         3.338897         0.410569         1.089620
 C         4.045668        -0.527116         0.076790
 C         3.506879        -0.359652        -1.437088
 O         2.099955        -0.341234        -1.296638
 O         3.302608        -1.741024         0.601242
 C         2.353678        -0.749604         1.154114
 H        -0.553189         0.167201         0.820485
 H        -0.541436         0.471554        -0.855113
 H        -0.195948        -1.191264        -0.052335
 H         2.640965         2.090403        -0.256956
 H         1.848070         1.967772         1.301311
 H         3.947155         0.861945         1.884333
 H         5.156035        -0.653117         0.071328
 H         3.853278         0.597078        -1.857630
 H         3.938141        -1.155451        -2.008212
 H         1.926472        -1.126981         2.108608
