19
Iteration:   570
 C         0.015805        -0.064783        -0.116942
 C         1.508169         0.012703        -0.067806
 C         2.261998         1.314319         0.458196
 C         3.308968         0.465043         1.076994
 C         4.100744        -0.477283         0.028667
 C         3.457572        -0.320352        -1.326303
 O         1.994601        -0.491622        -1.255195
 O         3.343343        -1.686814         0.611280
 C         2.385440        -0.793709         1.119406
 H        -0.472533         0.098767         0.889992
 H        -0.477625         0.692820        -0.796239
 H        -0.246543        -1.078339        -0.542399
 H         2.526931         2.149238        -0.194904
 H         1.707909         1.786166         1.381290
 H         3.915967         0.944441         1.906389
 H         5.202016        -0.584405         0.291388
 H         3.605081         0.630571        -1.721064
 H         3.983569        -1.069868        -2.109188
 H         1.846395        -1.270399         1.934808
