19
Iteration:   500charge 0 multiplicity 1
 C        -0.021830        -0.114685         0.067763
 C         1.525276         0.031402        -0.089226
 C         2.212421         1.309683         0.442683
 C         3.247390         0.414301         1.161765
 C         4.130750        -0.500392         0.071710
 C         3.547722        -0.383604        -1.436944
 O         2.050687        -0.387751        -1.380195
 O         3.331299        -1.623369         0.616327
 C         2.344014        -0.769783         1.097967
 H        -0.310453         0.111393         1.102443
 H        -0.599380         0.564649        -0.577932
 H        -0.302430        -1.117816        -0.268708
 H         2.727224         1.932975        -0.323801
 H         1.564834         1.815015         1.070813
 H         3.754146         0.754569         2.039718
 H         5.175099        -0.646987         0.214216
 H         3.939935         0.467990        -1.819510
 H         3.805952        -1.253603        -2.136949
 H         1.768144        -1.209391         1.933829
