19
Iteration:  3245
 C         0.030173        -0.141628        -0.105594
 C         1.530725        -0.046329         0.036252
 C         2.227657         1.296488         0.467961
 C         3.365031         0.477594         1.030140
 C         4.042928        -0.606498         0.015900
 C         3.446737        -0.352795        -1.347197
 O         2.030636        -0.307935        -1.316920
 O         3.344495        -1.641206         0.698932
 C         2.363820        -0.736372         1.113262
 H        -0.402826         0.274639         0.778094
 H        -0.353741         0.374396        -1.083771
 H        -0.190113        -1.280264        -0.398376
 H         2.373846         2.044913        -0.363551
 H         1.607286         1.769840         1.247680
 H         4.119721         0.857771         1.811214
 H         5.138160        -0.774808         0.063335
 H         3.854317         0.541107        -1.876823
 H         3.476019        -1.190487        -2.019621
 H         1.755053        -1.032646         2.011463
