19
Iteration:  3824charge 0 multiplicity 1
 C         0.064608        -0.100617        -0.092781
 C         1.574651         0.019931         0.028570
 C         2.239565         1.411496         0.455506
 C         3.353407         0.480456         1.091427
 C         4.000050        -0.536640         0.007559
 C         3.420841        -0.335062        -1.369711
 O         2.062656        -0.477899        -1.274098
 O         3.302625        -1.709200         0.576925
 C         2.386559        -0.780545         1.173933
 H        -0.430527         0.917837        -0.142501
 H        -0.190368        -0.639881        -1.075392
 H        -0.499086        -0.691975         0.716604
 H         2.433803         2.047398        -0.419592
 H         1.697670         1.941943         1.189767
 H         3.998606         0.910206         1.984340
 H         5.131230        -0.648083         0.008821
 H         3.535062         0.673357        -1.887659
 H         3.604941        -1.150059        -2.044947
 H         1.864186        -1.199272         2.098798
