19
Iteration:  4617
 C         0.018397        -0.237075        -0.037839
 C         1.525422        -0.028725        -0.020795
 C         2.248131         1.330234         0.447668
 C         3.426563         0.457098         1.004675
 C         4.052980        -0.633611         0.040276
 C         3.483332        -0.360998        -1.356813
 O         2.023360        -0.214021        -1.265760
 O         3.290229        -1.690079         0.619748
 C         2.340993        -0.641012         1.070656
 H        -0.732664         0.398543        -0.500491
 H        -0.075753        -1.334772        -0.448374
 H        -0.481891        -0.436557         1.012696
 H         2.343329         2.172623        -0.291063
 H         1.859629         1.735495         1.415685
 H         4.082202         0.699358         1.928634
 H         5.096651        -1.010661         0.129404
 H         3.918279         0.590443        -1.740597
 H         3.528222        -1.092172        -2.147275
 H         1.759083        -0.798593         2.005315
