19
Iteration:  2651charge 0 multiplicity 1
 C         0.002059        -0.161639        -0.093742
 C         1.487184         0.076793        -0.022557
 C         2.247871         1.368612         0.446580
 C         3.325984         0.382537         1.099060
 C         4.107987        -0.549992        -0.003128
 C         3.467715        -0.399540        -1.432178
 O         2.024533        -0.281787        -1.276982
 O         3.381406        -1.724325         0.694328
 C         2.283177        -0.725239         1.113195
 H        -0.551927         0.348782         0.795401
 H        -0.282550         0.319433        -0.954730
 H        -0.090915        -1.276797        -0.014932
 H         2.553132         2.092623        -0.280776
 H         1.746694         1.727214         1.378251
 H         4.034192         0.593248         1.898264
 H         5.131462        -0.778980        -0.071604
 H         3.975128         0.514723        -1.819308
 H         3.689349        -1.262593        -2.061757
 H         1.698139        -0.993265         1.973198
