19
Iteration:   206
 C        -0.003223        -0.227249        -0.078704
 C         1.503758         0.019920        -0.054363
 C         2.268240         1.323951         0.416933
 C         3.406467         0.449030         1.044108
 C         4.084025        -0.560705         0.037415
 C         3.479276        -0.293749        -1.367578
 O         2.042566        -0.424519        -1.250521
 O         3.271383        -1.643392         0.636613
 C         2.360990        -0.702938         1.148920
 H        -0.360666        -0.320942         0.929453
 H        -0.556315         0.607565        -0.501972
 H        -0.373159        -1.088784        -0.785448
 H         2.429308         2.190248        -0.336229
 H         1.718998         1.757119         1.381602
 H         4.007187         0.970963         1.792187
 H         5.181850        -0.806628         0.117944
 H         3.675203         0.770030        -1.690494
 H         3.692921        -1.063513        -2.097526
 H         1.831793        -0.950068         2.057898
