19
Iteration:   718
 C        -0.002519        -0.062715         0.057446
 C         1.564894        -0.120201        -0.115258
 C         2.270602         1.312851         0.362004
 C         3.242628         0.439402         1.180282
 C         4.034912        -0.428269         0.120348
 C         3.496490        -0.372230        -1.393314
 O         2.044572        -0.453725        -1.449357
 O         3.379388        -1.667036         0.657169
 C         2.330792        -0.753075         1.125667
 H        -0.102431         0.089030         1.125722
 H        -0.395417         0.803833        -0.435244
 H        -0.653002        -0.867804        -0.104003
 H         2.748540         2.056844        -0.452260
 H         1.619756         1.969291         0.921285
 H         3.831396         0.742400         1.987363
 H         5.081815        -0.416764         0.201694
 H         3.711557         0.567368        -1.730094
 H         3.988532        -1.059324        -2.042339
 H         1.597342        -1.069348         1.955838
