19
Iteration:  4614charge 0 multiplicity 1
 C         0.028594        -0.247457        -0.036166
 C         1.505379        -0.017343         0.012786
 C         2.261848         1.342856         0.455484
 C         3.411736         0.456179         0.999240
 C         4.040590        -0.643755         0.039934
 C         3.496204        -0.365140        -1.365518
 O         2.031483        -0.216261        -1.279713
 O         3.279814        -1.676498         0.597505
 C         2.362979        -0.652796         1.087546
 H        -0.731261         0.329560        -0.572218
 H        -0.015485        -1.283742        -0.437207
 H        -0.545714        -0.356422         1.022448
 H         2.234238         2.159372        -0.269604
 H         1.804926         1.747123         1.333876
 H         4.001962         0.706033         1.899649
 H         5.057663        -1.052646         0.162125
 H         3.981124         0.534108        -1.706522
 H         3.548273        -1.085928        -2.116641
 H         1.860571        -0.794485         2.080667
