19
Iteration:   527
 C         0.053206        -0.067029        -0.179119
 C         1.536279        -0.009025         0.011837
 C         2.167182         1.287770         0.482890
 C         3.338976         0.461900         0.975068
 C         4.048103        -0.523185         0.092585
 C         3.354387        -0.298050        -1.338435
 O         2.030285        -0.419575        -1.239300
 O         3.375018        -1.706751         0.629147
 C         2.439254        -0.802510         1.154718
 H        -0.531583        -0.004826         0.789655
 H        -0.166200         0.898481        -0.713142
 H        -0.226294        -0.942222        -0.813729
 H         2.336525         2.094437        -0.249601
 H         1.534722         1.899193         1.321145
 H         4.047310         0.978917         1.723009
 H         5.200731        -0.691563         0.079393
 H         3.944869         0.588282        -1.911388
 H         3.655922        -1.136288        -2.107815
 H         1.933148        -1.186992         2.060952
