19
Iteration:  4489
 C         0.001489        -0.183564        -0.084080
 C         1.545833         0.080092         0.005992
 C         2.300526         1.405507         0.570652
 C         3.354304         0.392075         1.030682
 C         4.065965        -0.548041        -0.069152
 C         3.475129        -0.328836        -1.408247
 O         2.023824        -0.427848        -1.236744
 O         3.325014        -1.667263         0.596125
 C         2.283303        -0.711839         1.144981
 H        -0.523697         0.380935        -0.930034
 H        -0.179503        -1.272523        -0.344194
 H        -0.524270        -0.007582         0.825603
 H         2.589123         2.146219        -0.240685
 H         1.636378         1.820419         1.427834
 H         4.022208         0.462250         1.913643
 H         5.185771        -0.542729        -0.077958
 H         3.686748         0.641453        -1.776634
 H         3.745372        -1.187987        -2.155581
 H         1.924859        -1.100154         2.123958
