19
Iteration:  3922charge 0 multiplicity 1
 C        -0.078201        -0.050253        -0.100004
 C         1.487856        -0.008920         0.070539
 C         2.238178         1.302205         0.445759
 C         3.339466         0.408676         1.067653
 C         4.116203        -0.532761         0.088225
 C         3.458532        -0.229892        -1.384593
 O         2.076752        -0.477618        -1.268009
 O         3.323247        -1.698791         0.505213
 C         2.403680        -0.781926         1.159433
 H        -0.463122         0.147000        -1.144443
 H        -0.467019        -1.000269         0.378857
 H        -0.516339         0.711067         0.563863
 H         2.568104         1.976673        -0.410512
 H         1.690361         1.966661         1.130993
 H         4.048981         0.648813         1.993199
 H         5.224626        -0.774639        -0.003432
 H         3.583905         0.762702        -1.692195
 H         3.737297        -0.867266        -2.180575
 H         2.069023        -0.960618         2.208434
