19
Iteration:  3672charge 0 multiplicity 1
 C         0.034315        -0.019754         0.009839
 C         1.518460        -0.002657        -0.100151
 C         2.237211         1.300305         0.360642
 C         3.318680         0.453472         1.030225
 C         4.009127        -0.460428         0.030932
 C         3.489869        -0.356282        -1.337900
 O         2.046131        -0.476775        -1.298092
 O         3.367818        -1.714167         0.684105
 C         2.356456        -0.771476         1.151759
 H        -0.173936        -0.410537         1.043835
 H        -0.417205         1.042856        -0.092550
 H        -0.443917        -0.677676        -0.692498
 H         2.550860         1.892728        -0.543779
 H         1.559634         1.948347         1.030069
 H         3.740798         0.866142         1.982580
 H         5.126162        -0.518619         0.061865
 H         3.788109         0.570132        -1.834136
 H         3.830830        -1.089636        -2.065589
 H         1.712039        -1.212515         1.995367
