19
Iteration:  2648
 C        -0.028206        -0.164783        -0.087028
 C         1.513791         0.070748        -0.044595
 C         2.241186         1.360067         0.453212
 C         3.327631         0.342074         1.081997
 C         4.093251        -0.529651         0.017345
 C         3.465402        -0.402548        -1.417295
 O         2.028126        -0.290575        -1.244830
 O         3.377675        -1.713744         0.680302
 C         2.314191        -0.718694         1.105600
 H        -0.513356         0.328377         0.676454
 H        -0.224914         0.502270        -1.015648
 H        -0.118617        -1.192981        -0.004922
 H         2.457935         2.108928        -0.318603
 H         1.676319         1.732090         1.309413
 H         4.058190         0.597806         1.908138
 H         5.144440        -0.753418        -0.097367
 H         4.018103         0.517302        -1.899551
 H         3.627857        -1.240923        -2.049906
 H         1.716152        -0.934572         2.022334
