19
Iteration:  2088
 C         0.007085        -0.175075         0.095290
 C         1.510100         0.035801        -0.115936
 C         2.303221         1.369607         0.385600
 C         3.336578         0.438455         1.049220
 C         4.055501        -0.577973         0.081130
 C         3.515374        -0.323249        -1.320983
 O         2.060725        -0.408401        -1.390863
 O         3.267961        -1.679880         0.589850
 C         2.311099        -0.711681         1.151707
 H        -0.419577        -0.192496         1.120378
 H        -0.584421         0.675427        -0.376015
 H        -0.219235        -1.195304        -0.341489
 H         2.745249         1.997997        -0.347465
 H         1.840714         1.852915         1.221866
 H         3.845379         0.901532         1.974133
 H         5.117460        -0.610214         0.284166
 H         3.861664         0.711151        -1.819812
 H         3.722025        -1.120265        -2.052255
 H         1.825746        -1.198875         2.037368
