19
Iteration:  4361charge 0 multiplicity 1
 C        -0.049075        -0.007110        -0.097093
 C         1.421151         0.043796         0.023106
 C         2.196884         1.272664         0.479285
 C         3.373054         0.415696         1.051746
 C         4.108923        -0.499051        -0.011582
 C         3.451807        -0.280079        -1.292507
 O         2.021262        -0.441878        -1.295358
 O         3.407764        -1.769466         0.568013
 C         2.430481        -0.777113         1.133206
 H        -0.422420         0.232550        -1.119815
 H        -0.189261        -1.027597         0.221460
 H        -0.665640         0.565940         0.665099
 H         2.361901         2.173274        -0.134390
 H         1.692713         1.658622         1.338250
 H         3.954350         0.761562         1.876954
 H         5.169784        -0.750893        -0.093561
 H         3.711392         0.730775        -1.795657
 H         3.835009        -0.887153        -2.025323
 H         1.954369        -1.027342         2.073572
