19
Iteration:  4451
 C         0.054997        -0.195888        -0.007657
 C         1.500290        -0.043254         0.017472
 C         2.160359         1.307637         0.368963
 C         3.372296         0.413965         1.016756
 C         3.978813        -0.561556         0.025754
 C         3.516681        -0.397782        -1.392581
 O         2.044878        -0.169691        -1.333378
 O         3.299309        -1.724647         0.628909
 C         2.382555        -0.709093         1.192672
 H        -0.469911         0.700328         0.049610
 H        -0.265992        -0.947867        -0.674766
 H        -0.016516        -0.478477         1.115824
 H         2.544459         2.023942        -0.347248
 H         1.602018         1.936071         1.058312
 H         4.011930         0.658336         1.866581
 H         5.057397        -0.632930         0.061141
 H         4.173513         0.480227        -1.786789
 H         3.768386        -1.147692        -2.087552
 H         1.953154        -0.966646         2.160302
