19
Iteration:  1382
 C        -0.021310        -0.152645        -0.050606
 C         1.505734         0.086591         0.015188
 C         2.258644         1.348903         0.413983
 C         3.288070         0.458798         1.009257
 C         4.026599        -0.580573         0.048970
 C         3.539986        -0.369710        -1.404039
 O         2.064955        -0.415440        -1.315841
 O         3.346260        -1.714785         0.695918
 C         2.308895        -0.696843         1.152824
 H        -0.317966        -0.257483         0.972472
 H        -0.701282         0.742270        -0.375906
 H        -0.266466        -1.043614        -0.655145
 H         2.692502         1.837134        -0.470888
 H         1.872052         2.109242         1.141054
 H         4.039127         0.923423         1.715907
 H         5.170749        -0.727524         0.224719
 H         3.813995         0.602959        -1.914079
 H         3.997941        -1.113213        -2.125614
 H         1.701297        -1.045937         1.987471
