19
Iteration:  4964charge 0 multiplicity 1
 C         0.043493         0.014650        -0.084475
 C         1.523643        -0.053318        -0.007284
 C         2.181063         1.287360         0.454967
 C         3.275583         0.460861         1.111267
 C         3.986662        -0.565562         0.007812
 C         3.468938        -0.317991        -1.389745
 O         2.015046        -0.390489        -1.289886
 O         3.428685        -1.734945         0.601144
 C         2.410357        -0.818344         1.175630
 H        -0.372365         0.670752        -0.810061
 H        -0.333253        -0.980643        -0.359209
 H        -0.451123         0.384348         0.868886
 H         2.419409         2.083290        -0.340511
 H         1.590837         1.874517         1.212308
 H         4.088656         0.901311         1.774814
 H         5.090407        -0.463029        -0.051502
 H         3.709124         0.669357        -1.756710
 H         3.937386        -1.068341        -2.119711
 H         2.007883        -1.085269         2.189857
