19
Iteration:   314charge 0 multiplicity 1
 C         0.006314        -0.191619        -0.152944
 C         1.510591        -0.002284         0.076731
 C         2.263876         1.426279         0.509563
 C         3.361779         0.465804         0.985354
 C         4.036553        -0.544727         0.034370
 C         3.471800        -0.326291        -1.346594
 O         1.997135        -0.428180        -1.252242
 O         3.333286        -1.708221         0.586967
 C         2.365044        -0.693836         1.162195
 H        -0.519839         0.421624         0.542072
 H        -0.219469         0.133922        -1.180882
 H        -0.270329        -1.305684        -0.276310
 H         2.461690         2.063119        -0.367009
 H         1.828408         1.817884         1.343143
 H         3.976277         0.934396         1.801625
 H         5.103754        -0.711818         0.047973
 H         3.822457         0.696588        -1.684551
 H         3.828930        -1.228418        -2.059203
 H         1.969676        -1.158737         2.062818
