19
Iteration:  1235
 C         0.103886        -0.199293        -0.082606
 C         1.554076        -0.003940         0.037359
 C         2.333756         1.377351         0.342344
 C         3.335301         0.505627         1.089466
 C         3.943890        -0.571450         0.040851
 C         3.499397        -0.234467        -1.390812
 O         2.064913        -0.476776        -1.276023
 O         3.173008        -1.677275         0.615928
 C         2.389217        -0.723544         1.172666
 H        -0.320044         0.064602         0.905400
 H        -0.449084         0.208243        -0.929287
 H        -0.112258        -1.248723        -0.047832
 H         2.605674         1.969486        -0.601284
 H         1.657312         1.975127         0.984725
 H         3.985890         0.781192         1.912490
 H         4.906113        -0.916261         0.177185
 H         3.807195         0.811883        -1.491611
 H         3.807420        -0.878469        -2.193757
 H         1.850850        -1.026113         2.139308
