19
Iteration:  2679
 C         0.109026        -0.242007         0.018973
 C         1.555594         0.023405        -0.093564
 C         2.257544         1.357973         0.399388
 C         3.360520         0.441431         1.119233
 C         3.956108        -0.515223         0.053126
 C         3.468403        -0.341107        -1.345272
 O         2.036482        -0.263818        -1.371325
 O         3.229572        -1.770349         0.611460
 C         2.371439        -0.708031         1.173462
 H        -0.262187         0.214076         0.881570
 H        -0.396338         0.295069        -0.989731
 H        -0.181962        -1.291389        -0.110666
 H         2.623762         2.113178        -0.368635
 H         1.666999         1.759388         1.208561
 H         4.220709         0.621307         1.807951
 H         5.072062        -0.792296         0.064962
 H         3.960352         0.615103        -1.620062
 H         3.802035        -1.206410        -1.923367
 H         1.750993        -0.895130         2.105254
