19
Iteration:  3816
 C         0.107060        -0.078216        -0.089703
 C         1.574528         0.007947        -0.006460
 C         2.260594         1.314583         0.450680
 C         3.317518         0.470981         1.060404
 C         3.955925        -0.513131         0.022287
 C         3.439281        -0.314940        -1.384145
 O         1.985138        -0.527138        -1.248707
 O         3.305826        -1.633302         0.578610
 C         2.396279        -0.772544         1.220472
 H        -0.320850         0.967872        -0.028916
 H        -0.123386        -0.471911        -1.131418
 H        -0.305506        -0.621437         0.656417
 H         2.728828         1.945404        -0.287196
 H         1.686296         1.836903         1.204653
 H         4.141578         0.696455         1.756294
 H         5.065482        -0.471710         0.100217
 H         3.693507         0.757784        -1.807460
 H         3.931337        -1.055362        -2.114180
 H         1.690785        -1.317341         1.899912
