19
Iteration:  1258charge 0 multiplicity 1
 C         0.010017        -0.111245        -0.074400
 C         1.507218         0.074409        -0.023230
 C         2.265065         1.360224         0.424024
 C         3.390389         0.422037         1.028603
 C         4.088121        -0.508118         0.053351
 C         3.475065        -0.366860        -1.298944
 O         2.034261        -0.483155        -1.289418
 O         3.303870        -1.681214         0.624764
 C         2.323717        -0.700487         1.106493
 H        -0.582773         0.370071         0.650135
 H        -0.348829         0.126977        -1.129298
 H        -0.222991        -1.172275         0.024614
 H         2.340983         2.255874        -0.198057
 H         1.731361         1.569051         1.413015
 H         3.997166         0.820233         1.771543
 H         5.156147        -0.508738        -0.027255
 H         3.861898         0.564339        -1.686194
 H         3.730438        -1.243202        -1.906303
 H         1.675806        -1.112046         1.936531
