19
Iteration:  3971charge 0 multiplicity 1
 C        -0.049190        -0.095074        -0.032099
 C         1.523812         0.069926        -0.061933
 C         2.261770         1.352119         0.502938
 C         3.279457         0.412982         1.150799
 C         4.097575        -0.546383         0.010222
 C         3.528298        -0.371490        -1.378082
 O         1.953021        -0.432648        -1.346953
 O         3.388049        -1.643677         0.592826
 C         2.415855        -0.780800         1.149680
 H        -0.395739         0.676353        -0.746013
 H        -0.306881        -1.085376        -0.441274
 H        -0.593957         0.062676         0.972175
 H         2.396925         2.100157        -0.213774
 H         1.688140         1.844856         1.295135
 H         3.849682         0.686746         1.998004
 H         5.158405        -0.567863        -0.147348
 H         3.906114         0.538420        -1.865772
 H         3.736885        -1.275692        -2.075278
 H         1.876986        -1.174171         1.996112
