19
Iteration:  2004charge 0 multiplicity 1
 C         0.069478        -0.047674        -0.033092
 C         1.591170        -0.024479        -0.020479
 C         2.244947         1.304373         0.430468
 C         3.302785         0.397127         1.110418
 C         4.035951        -0.516141         0.058624
 C         3.504500        -0.335981        -1.406693
 O         1.944152        -0.455151        -1.325974
 O         3.372149        -1.647833         0.622795
 C         2.342574        -0.753867         1.124011
 H        -0.293978         0.337084         0.844394
 H        -0.269150         0.495983        -0.981042
 H        -0.386937        -1.033795        -0.177076
 H         2.358466         2.046848        -0.354918
 H         1.743262         1.984504         1.239820
 H         3.792567         0.765516         2.061329
 H         5.108174        -0.700857         0.155527
 H         3.658597         0.800165        -1.791604
 H         3.854063        -1.095092        -2.117075
 H         1.741556        -1.157527         2.016554
