19
Iteration:    28
 C         0.001289        -0.065745        -0.052321
 C         1.509881        -0.004254        -0.065374
 C         2.116677         1.290608         0.517501
 C         3.270012         0.479344         0.997103
 C         4.061989        -0.492093         0.044574
 C         3.474586        -0.563780        -1.341010
 O         2.031364        -0.221726        -1.371495
 O         3.497975        -1.674462         0.706672
 C         2.389939        -0.806642         1.118032
 H        -0.389497         0.042454         1.029181
 H        -0.545958         0.769395        -0.614949
 H        -0.337539        -1.114447        -0.358621
 H         2.175547         2.087459        -0.446378
 H         1.433451         1.805175         1.262520
 H         3.952662         0.880564         1.811050
 H         5.176395        -0.503881         0.060372
 H         3.986730         0.190396        -2.065084
 H         3.721503        -1.559912        -1.904061
 H         1.933689        -1.221483         2.046302
