19
Iteration:   598
 C         0.069584        -0.135597         0.133901
 C         1.554300        -0.056270        -0.101118
 C         2.197966         1.336245         0.386924
 C         3.229999         0.432427         1.095918
 C         4.003555        -0.456859         0.059643
 C         3.530335        -0.322155        -1.334283
 O         2.103112        -0.355574        -1.402195
 O         3.286535        -1.721300         0.627514
 C         2.348939        -0.788683         1.080539
 H        -0.172820         0.330932         1.092682
 H        -0.375401         0.458121        -0.632005
 H        -0.356049        -1.113208         0.099625
 H         2.667924         1.880522        -0.462305
 H         1.749107         2.088830         0.924420
 H         3.840977         0.752616         1.885430
 H         4.993105        -0.537839         0.336365
 H         3.932157         0.614406        -1.970523
 H         3.995950        -1.061417        -1.826023
 H         1.735008        -1.214793         1.888911
