19
Iteration:  3279
 C         0.033821        -0.216560        -0.067346
 C         1.514133         0.026771        -0.024581
 C         2.257254         1.436943         0.496809
 C         3.307033         0.497207         1.028647
 C         3.995234        -0.628040         0.013723
 C         3.480527        -0.404479        -1.413974
 O         2.080261        -0.351845        -1.327760
 O         3.296797        -1.651375         0.671287
 C         2.363599        -0.727560         1.168419
 H        -0.323890        -0.610256         0.886191
 H        -0.620058         0.715128        -0.432038
 H        -0.100612        -1.232422        -0.615528
 H         2.539395         2.238753        -0.224322
 H         1.644214         1.850741         1.299702
 H         4.187671         0.974355         1.611592
 H         5.044512        -0.754815         0.179790
 H         4.080579         0.459230        -1.783401
 H         3.726938        -1.229100        -2.123378
 H         1.829354        -1.086747         2.089470
