19
Iteration:  2967charge 0 multiplicity 1
 C         0.045635        -0.208927        -0.016934
 C         1.548214         0.037353        -0.090029
 C         2.291042         1.397297         0.441841
 C         3.331430         0.439930         1.052959
 C         4.014671        -0.548685         0.105542
 C         3.512129        -0.372605        -1.286380
 O         2.036662        -0.339154        -1.303326
 O         3.267818        -1.711533         0.586009
 C         2.327485        -0.704251         1.045089
 H        -0.319972        -0.137250         1.071475
 H        -0.654885         0.253893        -0.751688
 H        -0.007112        -1.322108        -0.159517
 H         2.485486         2.270501        -0.191068
 H         1.869684         1.841471         1.387296
 H         3.903347         0.848655         1.908952
 H         5.121246        -0.698925         0.000516
 H         3.857665         0.529308        -1.962764
 H         3.632995        -1.154417        -2.026367
 H         1.853651        -1.018056         1.976570
