19
Iteration:  3022charge 0 multiplicity 1
 C        -0.001624        -0.071949        -0.122637
 C         1.533852         0.021835         0.004973
 C         2.166215         1.317554         0.501208
 C         3.361613         0.442990         1.091052
 C         4.078702        -0.534178         0.041959
 C         3.449999        -0.370369        -1.343573
 O         2.016754        -0.421646        -1.326412
 O         3.357939        -1.715741         0.612175
 C         2.393445        -0.738598         1.106215
 H        -0.625465         0.687467         0.505056
 H        -0.165577         0.249003        -1.128236
 H        -0.210502        -1.113796         0.235092
 H         2.284606         2.097623        -0.286788
 H         1.744872         1.856761         1.426467
 H         4.072353         0.752400         1.869519
 H         5.237792        -0.578616         0.017597
 H         3.727436         0.730591        -1.704583
 H         3.748944        -1.157808        -2.060615
 H         1.866562        -1.058136         2.007979
