19
Iteration:  1870
 C         0.052403         0.006020        -0.009768
 C         1.570897        -0.082534        -0.060309
 C         2.210218         1.289766         0.350732
 C         3.294544         0.493907         1.145209
 C         3.983257        -0.484038         0.112888
 C         3.489732        -0.330969        -1.369530
 O         2.047765        -0.524527        -1.344532
 O         3.358418        -1.654267         0.625404
 C         2.339340        -0.765311         1.117223
 H        -0.065741         0.065191         1.038635
 H        -0.290671         0.925103        -0.415058
 H        -0.570524        -0.787847        -0.391312
 H         2.487176         1.915205        -0.532749
 H         1.426800         1.825310         0.918848
 H         4.002874         0.779530         1.956299
 H         5.019932        -0.683264         0.183217
 H         3.951745         0.574913        -1.841770
 H         4.011083        -1.041774        -1.968022
 H         1.706712        -1.159305         1.924668
