19
Iteration:  1102charge 0 multiplicity 1
 C         0.130620        -0.190752         0.027804
 C         1.565935        -0.013985        -0.080893
 C         2.277427         1.294369         0.400425
 C         3.328197         0.526301         1.104965
 C         3.965758        -0.518633         0.096039
 C         3.573514        -0.259694        -1.388498
 O         2.028328        -0.491826        -1.353013
 O         3.181069        -1.677563         0.601524
 C         2.333534        -0.686047         1.134553
 H        -0.164191         0.529396         0.942298
 H        -0.383840         0.309713        -0.764383
 H        -0.045289        -1.266773        -0.057151
 H         2.542120         1.917298        -0.573405
 H         1.706164         1.795130         1.172196
 H         3.931177         0.855369         2.061257
 H         4.967755        -0.800419         0.253303
 H         3.725567         0.762247        -1.582523
 H         4.073095        -0.924534        -2.101052
 H         1.655059        -1.208194         1.941176
