19
Iteration:  3085charge 0 multiplicity 1
 C        -0.009018        -0.102502        -0.000316
 C         1.519354        -0.047919        -0.063053
 C         2.182291         1.352085         0.318537
 C         3.295382         0.447626         1.098763
 C         4.052558        -0.550191         0.055321
 C         3.470573        -0.355044        -1.379771
 O         2.104045        -0.357158        -1.288210
 O         3.356945        -1.694622         0.653475
 C         2.374072        -0.774504         1.157053
 H        -0.395972        -0.175745         1.027381
 H        -0.520915         0.813679        -0.524565
 H        -0.499975        -0.852782        -0.519084
 H         2.657542         2.089935        -0.372270
 H         1.663629         1.995435         1.099788
 H         4.068959         0.725432         1.913265
 H         5.192535        -0.764980         0.134438
 H         3.761462         0.616847        -1.746532
 H         3.865018        -0.997167        -2.248891
 H         1.674650        -1.179435         1.960162
