19
Iteration:   582
 C         0.077948        -0.064465        -0.014900
 C         1.578341         0.025552        -0.019789
 C         2.198501         1.333637         0.353838
 C         3.275399         0.443647         1.133778
 C         4.035170        -0.526379         0.112799
 C         3.500276        -0.326950        -1.329873
 O         2.027144        -0.447966        -1.300866
 O         3.385374        -1.688786         0.555076
 C         2.310674        -0.762233         1.075919
 H        -0.202066         0.114025         1.049729
 H        -0.447858         0.607439        -0.750993
 H        -0.205935        -1.154375        -0.145719
 H         2.393691         2.104023        -0.432848
 H         1.351845         1.742335         1.089475
 H         3.787435         0.732320         2.138346
 H         5.167025        -0.638329        -0.112218
 H         3.860296         0.616947        -1.644006
 H         3.751153        -1.184626        -2.128618
 H         1.695258        -1.145984         1.931029
