19
Iteration:  2225
 C         0.068680        -0.112941        -0.011898
 C         1.541055         0.070949        -0.060044
 C         2.287482         1.375110         0.333879
 C         3.316093         0.499581         1.074091
 C         3.998564        -0.603636         0.080698
 C         3.406240        -0.303180        -1.325785
 O         2.050032        -0.409172        -1.367747
 O         3.315930        -1.766430         0.662279
 C         2.323686        -0.770865         1.152563
 H        -0.052326        -0.403436         1.127282
 H        -0.592115         0.729550        -0.241089
 H        -0.126881        -1.075923        -0.492924
 H         2.705825         2.006428        -0.521688
 H         1.772491         1.956037         1.113737
 H         3.920970         0.910087         1.857381
 H         5.122944        -0.623670        -0.009845
 H         3.851543         0.642070        -1.671743
 H         3.922105        -0.973974        -2.052922
 H         1.776489        -1.140519         2.059405
