19
Iteration:  4746
 C        -0.044528        -0.306732        -0.013880
 C         1.553512         0.090110         0.059968
 C         2.276643         1.416964         0.503982
 C         3.356033         0.412488         1.041938
 C         4.079821        -0.614519        -0.010455
 C         3.502758        -0.377328        -1.367515
 O         2.083269        -0.213639        -1.295501
 O         3.218536        -1.694356         0.567458
 C         2.376302        -0.687038         1.074071
 H        -0.627124        -0.145418        -0.866210
 H        -0.009363        -1.448115         0.057845
 H        -0.435099         0.358991         0.943885
 H         2.576681         1.974626        -0.410216
 H         1.553109         1.967765         1.098547
 H         3.785197         0.593224         2.129408
 H         5.185681        -0.758027         0.209726
 H         3.969678         0.544409        -1.951468
 H         3.672389        -1.287491        -1.990783
 H         1.756730        -1.386810         1.773715
