19
Iteration:  4333
 C         0.152538        -0.209846         0.022046
 C         1.534041        -0.036527         0.011205
 C         2.244889         1.348150         0.578283
 C         3.271544         0.443795         1.133768
 C         3.980821        -0.481436        -0.026239
 C         3.457319        -0.384350        -1.424753
 O         2.065235        -0.287719        -1.398515
 O         3.305874        -1.676402         0.574180
 C         2.314739        -0.747829         1.101235
 H        -0.267637        -0.062337        -0.949988
 H        -0.109546        -1.155522         0.544505
 H        -0.241366         0.646896         0.622609
 H         2.704006         2.067362        -0.153749
 H         1.617706         1.904324         1.360097
 H         3.992705         0.694543         1.940993
 H         5.044276        -0.735649         0.025336
 H         3.866786         0.374078        -2.043555
 H         3.766657        -1.333063        -2.051629
 H         1.677842        -1.072875         1.948097
