19
Iteration:  2810
 C         0.127285        -0.211022        -0.058970
 C         1.590587         0.056053        -0.048073
 C         2.266006         1.389227         0.466265
 C         3.304444         0.447640         1.068423
 C         3.991548        -0.536609         0.006619
 C         3.529499        -0.279068        -1.390752
 O         2.018875        -0.355403        -1.301170
 O         3.189955        -1.781322         0.614030
 C         2.384684        -0.731855         1.202699
 H        -0.367714         0.038600         0.794350
 H        -0.583597         0.322832        -0.748814
 H        -0.048885        -1.254230        -0.023086
 H         2.544432         2.026997        -0.405395
 H         1.500388         1.895138         1.044734
 H         4.035603         0.668304         1.863740
 H         5.148859        -0.615038         0.151525
 H         3.981124         0.696076        -1.755553
 H         3.870071        -1.086396        -2.127575
 H         1.709118        -1.036641         2.050504
