19
Iteration:  3554
 C         0.101964        -0.253268         0.045562
 C         1.611456         0.029463        -0.019496
 C         2.251552         1.426719         0.420435
 C         3.318889         0.519286         1.105420
 C         3.987350        -0.561413         0.067417
 C         3.458885        -0.375486        -1.335266
 O         2.042301        -0.334315        -1.310812
 O         3.225576        -1.732112         0.545224
 C         2.361780        -0.728129         1.064231
 H        -0.435035         0.142891         0.953191
 H        -0.448960         0.145573        -0.892879
 H        -0.047068        -1.283910         0.008841
 H         2.722708         2.002337        -0.388722
 H         1.659274         2.220617         0.955580
 H         3.877197         0.680277         2.029443
 H         5.072928        -0.746633         0.086140
 H         4.033407         0.480779        -1.834904
 H         3.896303        -1.186256        -1.977404
 H         1.738938        -0.996047         1.933854
