19
Iteration:  2362
 C         0.080587        -0.129362        -0.031816
 C         1.562423         0.014557        -0.001592
 C         2.237875         1.318873         0.457450
 C         3.301806         0.445875         1.070224
 C         3.947092        -0.512327         0.013657
 C         3.548393        -0.369645        -1.449736
 O         2.108201        -0.428829        -1.338877
 O         3.242192        -1.695100         0.611860
 C         2.334546        -0.692071         1.231126
 H        -0.186535         0.112325         0.932299
 H        -0.545723         0.579212        -0.743057
 H        -0.271546        -1.171021        -0.104752
 H         2.420150         2.143265        -0.342688
 H         1.708516         1.940511         1.293069
 H         4.007851         0.829984         1.889495
 H         5.025397        -0.640333         0.006312
 H         3.794063         0.475141        -2.077579
 H         3.933533        -1.145326        -2.048326
 H         1.817364        -0.974552         2.159034
