19
Iteration:   592
 C         0.110120        -0.118320         0.123059
 C         1.560207        -0.025558        -0.087881
 C         2.160425         1.349844         0.361480
 C         3.256581         0.424886         1.119216
 C         3.978463        -0.519431         0.080272
 C         3.483891        -0.289615        -1.327891
 O         2.116655        -0.390987        -1.373892
 O         3.340069        -1.705759         0.588718
 C         2.326853        -0.763179         1.073049
 H        -0.275580         0.383635         1.054658
 H        -0.341488         0.547255        -0.684435
 H        -0.324183        -1.139094        -0.087094
 H         2.560656         1.848618        -0.517111
 H         1.535647         2.080693         1.033523
 H         3.853052         0.647179         2.071923
 H         5.136099        -0.550783         0.221103
 H         3.821234         0.539897        -1.838313
 H         3.949585        -1.297337        -1.893132
 H         1.722977        -1.136495         1.906303
