19
Iteration:  2431charge 0 multiplicity 1
 C         0.149076        -0.045126        -0.062695
 C         1.564976        -0.019480        -0.038690
 C         2.224534         1.302806         0.388219
 C         3.292991         0.508782         1.123552
 C         3.997133        -0.554564         0.066352
 C         3.438166        -0.384921        -1.354870
 O         2.000096        -0.431321        -1.328421
 O         3.341178        -1.683421         0.631822
 C         2.386220        -0.748717         1.131766
 H        -0.286208        -0.030221         0.989956
 H        -0.325492         0.790346        -0.560816
 H        -0.379474        -0.909917        -0.468029
 H         2.344883         2.129494        -0.337407
 H         1.560056         1.935095         1.103150
 H         3.894084         0.815690         2.080291
 H         5.064818        -0.646763         0.109525
 H         3.883697         0.481714        -1.890420
 H         3.818547        -1.153981        -2.076937
 H         1.791805        -1.204071         1.956815
