19
Iteration:  3735charge 0 multiplicity 1
 C         0.057859        -0.238556        -0.056778
 C         1.557535         0.079759        -0.021624
 C         2.308864         1.416451         0.498637
 C         3.361387         0.587888         1.073852
 C         4.001097        -0.600676         0.025872
 C         3.439121        -0.497828        -1.414804
 O         1.989476        -0.363516        -1.341510
 O         3.288214        -1.695021         0.637051
 C         2.348415        -0.682370         1.180771
 H        -0.529220        -0.026535         0.794570
 H        -0.343769         0.248283        -0.884274
 H         0.048630        -1.331592        -0.426987
 H         2.476194         2.203443        -0.192002
 H         1.749577         1.920067         1.206949
 H         4.054719         0.767351         1.915046
 H         5.086047        -0.650195        -0.097092
 H         3.939163         0.500350        -1.787176
 H         3.769467        -1.325018        -1.959404
 H         1.872783        -1.061097         2.076474
