19
Iteration:  2514charge 0 multiplicity 1
 C         0.019797        -0.176015        -0.097215
 C         1.484979         0.065338        -0.022922
 C         2.203971         1.400155         0.513458
 C         3.338033         0.480631         1.115884
 C         4.076758        -0.646662        -0.031561
 C         3.486877        -0.436919        -1.384057
 O         2.058333        -0.330502        -1.336961
 O         3.296978        -1.699434         0.662122
 C         2.418923        -0.658613         1.180645
 H        -0.508277         0.308394         0.677744
 H        -0.412349         0.221620        -1.165666
 H        -0.147737        -1.262530        -0.086839
 H         2.611045         2.111536        -0.215891
 H         1.576543         1.735421         1.311078
 H         4.075989         0.634463         1.893898
 H         5.184238        -0.760699        -0.128473
 H         3.790216         0.583576        -1.829943
 H         3.550887        -1.263604        -2.050216
 H         1.706445        -1.079151         1.909579
