19
Iteration:  2339charge 0 multiplicity 1
 C        -0.004199        -0.068534         0.024437
 C         1.532913         0.016218        -0.016532
 C         2.284241         1.310895         0.311179
 C         3.335395         0.450894         1.082568
 C         4.055409        -0.539022         0.119896
 C         3.501817        -0.332479        -1.265320
 O         1.995460        -0.454508        -1.301956
 O         3.315964        -1.683132         0.591919
 C         2.387752        -0.756846         1.023120
 H        -0.431528         0.388563         0.911673
 H        -0.485727         0.359165        -0.939487
 H        -0.356733        -1.140959         0.108180
 H         2.535745         2.178088        -0.438270
 H         1.664877         1.937584         1.064845
 H         3.892755         0.748769         1.991413
 H         5.185165        -0.613591         0.097002
 H         3.790862         0.628043        -1.703595
 H         3.820053        -0.982831        -2.064311
 H         1.745671        -1.198252         1.785584
