19
Iteration:   950charge 0 multiplicity 1
 C        -0.046951        -0.164074        -0.002134
 C         1.527432         0.055355        -0.135366
 C         2.209980         1.324611         0.430780
 C         3.321416         0.425871         1.046670
 C         4.092310        -0.506227         0.085307
 C         3.450591        -0.448834        -1.368788
 O         2.088088        -0.361515        -1.422466
 O         3.326930        -1.622974         0.712800
 C         2.366993        -0.745812         1.157707
 H        -0.334266         0.158818         1.029788
 H        -0.543169         0.205502        -0.825735
 H        -0.227560        -1.208616         0.229065
 H         2.596321         2.207540        -0.170056
 H         1.672244         1.808196         1.198204
 H         4.037096         0.910634         1.839521
 H         5.126707        -0.702832         0.084382
 H         3.957596         0.516728        -1.900150
 H         3.848972        -1.282444        -1.949502
 H         1.627080        -1.068918         2.048183
