19
Iteration:  1556charge 0 multiplicity 1
 C         0.022943        -0.020226        -0.220676
 C         1.512855        -0.052920         0.000325
 C         2.224181         1.283828         0.510455
 C         3.379431         0.455242         1.085493
 C         3.974992        -0.547178         0.003824
 C         3.441757        -0.429255        -1.393772
 O         1.985663        -0.419619        -1.371500
 O         3.442667        -1.627312         0.715296
 C         2.383878        -0.712474         1.248390
 H        -0.374297        -0.157218         0.741945
 H        -0.479154         0.892848        -0.689710
 H        -0.387279        -0.924417        -0.662092
 H         2.497763         2.044271        -0.259148
 H         1.542418         1.819312         1.281140
 H         4.057995         0.944682         1.854823
 H         5.107841        -0.617893        -0.102219
 H         3.778119         0.453142        -1.730455
 H         3.818319        -1.287327        -2.080425
 H         1.770351        -1.062110         2.144552
