19
Iteration:  2988
 C         0.048313        -0.222140        -0.007929
 C         1.513601         0.046661         0.033253
 C         2.197407         1.372177         0.476932
 C         3.338870         0.397998         1.111577
 C         4.046639        -0.591319         0.035717
 C         3.485081        -0.403022        -1.416748
 O         2.084330        -0.251693        -1.397279
 O         3.284417        -1.691733         0.650339
 C         2.365924        -0.720341         1.133001
 H        -0.498340         0.336972         0.780340
 H        -0.321056         0.077929        -1.025870
 H        -0.267414        -1.247782        -0.015773
 H         2.350348         1.831553        -0.510635
 H         1.647311         2.091163         1.169605
 H         4.031450         0.819944         1.871730
 H         5.200907        -0.596932         0.143346
 H         4.013893         0.552599        -1.856395
 H         3.671543        -1.178608        -2.208737
 H         1.784315        -1.068631         2.020970
