19
Iteration:  1253charge 0 multiplicity 1
 C         0.037625        -0.153743        -0.072538
 C         1.561315         0.067649        -0.052929
 C         2.246806         1.335215         0.416213
 C         3.385813         0.411556         1.034195
 C         4.094041        -0.547865         0.066284
 C         3.440464        -0.323392        -1.302187
 O         2.043775        -0.491595        -1.279441
 O         3.255838        -1.694157         0.602031
 C         2.310017        -0.650111         1.140019
 H        -0.611114         0.284983         0.768677
 H        -0.103754         0.223691        -1.085269
 H        -0.226706        -1.215754         0.086982
 H         2.438610         2.239176        -0.258935
 H         1.787252         1.784793         1.279191
 H         4.058247         0.914356         1.865794
 H         5.221604        -0.438653        -0.077470
 H         3.766619         0.773280        -1.683669
 H         3.731148        -1.174976        -1.936651
 H         1.692240        -1.015938         1.935771
