19
Iteration:  3944
 C         0.072916         0.009403        -0.070550
 C         1.610553        -0.079767         0.005391
 C         2.195951         1.259152         0.450008
 C         3.319274         0.475551         1.043871
 C         3.968774        -0.540817        -0.017333
 C         3.437847        -0.206834        -1.348315
 O         2.013327        -0.460240        -1.230820
 O         3.351616        -1.725469         0.624038
 C         2.400673        -0.834361         1.133203
 H         0.056600         0.396794        -1.136661
 H        -0.453207        -1.001117         0.011220
 H        -0.429273         0.743018         0.532657
 H         2.218760         2.060271        -0.372997
 H         1.509820         1.656103         1.218665
 H         4.268627         0.936330         1.633164
 H         5.116959        -0.567536        -0.127622
 H         3.728092         0.830385        -1.493626
 H         3.762360        -0.843918        -2.114211
 H         1.773605        -1.157059         2.013326
