19
Iteration:  3204charge 0 multiplicity 1
 C         0.038799        -0.028289         0.014828
 C         1.559182        -0.065903        -0.065043
 C         2.240279         1.259155         0.387329
 C         3.314841         0.440237         1.151939
 C         4.045724        -0.462964         0.102214
 C         3.454301        -0.325149        -1.319828
 O         2.025384        -0.507306        -1.297156
 O         3.345182        -1.606445         0.547540
 C         2.329786        -0.771668         1.066002
 H        -0.178753         0.792934         0.714725
 H        -0.236382         0.185893        -1.125638
 H        -0.395866        -0.979536         0.301250
 H         2.587549         1.982695        -0.338251
 H         1.624256         1.791955         1.084995
 H         3.806030         0.940024         2.069289
 H         5.082715        -0.636361         0.087735
 H         3.775223         0.630353        -1.812897
 H         3.983427        -1.031736        -2.032476
 H         1.689871        -1.325353         1.800319
