19
Iteration:  1194
 C         0.014741        -0.136816        -0.008500
 C         1.551128         0.014765        -0.076960
 C         2.173438         1.398058         0.411398
 C         3.342832         0.505836         1.079849
 C         4.069970        -0.577735         0.055479
 C         3.493315        -0.464882        -1.295892
 O         2.020529        -0.355721        -1.358277
 O         3.347819        -1.663227         0.698580
 C         2.383621        -0.747755         1.036066
 H        -0.356617        -0.005111         0.961684
 H        -0.556179         0.820000        -0.559084
 H        -0.265624        -1.030870        -0.635857
 H         2.265534         2.195828        -0.225412
 H         1.596389         1.639221         1.345882
 H         3.799548         0.766465         1.971406
 H         5.195342        -0.534166        -0.013793
 H         4.040941         0.277091        -1.895262
 H         3.722406        -1.430650        -1.834734
 H         1.781794        -1.208934         1.827483
