19
Iteration:   547
 C        -0.019060        -0.038591        -0.274828
 C         1.522320        -0.073708         0.108848
 C         2.224742         1.303213         0.493653
 C         3.380702         0.451176         1.120826
 C         3.992070        -0.536577        -0.094883
 C         3.446208        -0.294541        -1.409685
 O         2.011518        -0.483439        -1.247835
 O         3.394651        -1.684325         0.629686
 C         2.401240        -0.695400         1.263147
 H        -0.682432        -0.025148         0.679898
 H        -0.336514         0.866240        -0.861374
 H        -0.215332        -0.952080        -0.873889
 H         2.245960         2.047315        -0.267533
 H         1.597429         1.767214         1.362604
 H         4.025575         0.719658         1.955685
 H         5.110001        -0.701814        -0.068136
 H         3.789569         0.656537        -1.674591
 H         4.018915        -0.999479        -2.223576
 H         2.033126        -1.006177         2.186541
