19
Iteration:  2596charge 0 multiplicity 1
 C         0.022844         0.047338        -0.100467
 C         1.503311        -0.051807        -0.024697
 C         2.271449         1.281007         0.435090
 C         3.299179         0.425448         1.044510
 C         4.008642        -0.469042         0.049007
 C         3.424990        -0.296566        -1.316641
 O         2.076899        -0.548572        -1.268859
 O         3.363679        -1.705008         0.635632
 C         2.348187        -0.734286         1.077660
 H        -0.159930         0.052767         1.088856
 H        -0.296951         0.930136        -0.613221
 H        -0.322767        -0.978900        -0.493824
 H         2.542475         2.086378        -0.250896
 H         1.744654         1.977803         1.188280
 H         3.911695         0.623482         1.985897
 H         5.048080        -0.661879        -0.092155
 H         3.705059         0.688968        -1.728139
 H         3.861315        -0.984789        -2.103470
 H         1.836100        -1.030489         1.981452
