19
Iteration:  3336
 C         0.058700         0.017938        -0.026971
 C         1.541077        -0.055249        -0.005684
 C         2.198802         1.303384         0.409482
 C         3.256056         0.380892         1.102727
 C         4.119343        -0.485349        -0.018703
 C         3.423388        -0.284001        -1.431435
 O         2.054438        -0.530255        -1.306956
 O         3.378524        -1.666486         0.718919
 C         2.352645        -0.762325         1.093483
 H        -0.382425         0.143692         1.036542
 H        -0.417232         0.955921        -0.646437
 H        -0.413690        -0.802091        -0.510425
 H         2.444230         1.968687        -0.391719
 H         1.547531         1.793721         1.108029
 H         3.926022         0.636141         1.946447
 H         5.160164        -0.438195         0.046498
 H         3.753291         0.722272        -1.603009
 H         3.781696        -1.001829        -2.173437
 H         1.740109        -1.142714         1.928251
