19
Iteration:  4348charge 0 multiplicity 1
 C        -0.045766        -0.116474        -0.015806
 C         1.593508         0.031648        -0.065622
 C         2.240028         1.359417         0.560208
 C         3.368697         0.419404         1.070021
 C         4.032667        -0.538825         0.037179
 C         3.481426        -0.336994        -1.440447
 O         2.004045        -0.390030        -1.300244
 O         3.353729        -1.673603         0.593987
 C         2.387054        -0.786085         1.085719
 H        -0.448300        -0.032167        -1.087541
 H        -0.518519        -1.132183         0.283660
 H        -0.433293         0.643535         0.589078
 H         2.342323         2.212278        -0.056692
 H         1.633371         1.609575         1.409178
 H         4.009490         0.696609         1.956944
 H         5.162550        -0.504125         0.110054
 H         3.788300         0.708463        -1.730370
 H         3.729779        -1.213952        -2.051619
 H         1.785256        -1.273900         1.903443
