19
Iteration:  1650
 C        -0.025089        -0.160931        -0.106188
 C         1.489260         0.038773        -0.037083
 C         2.223299         1.359094         0.460031
 C         3.345038         0.485712         1.056214
 C         4.066610        -0.536294         0.029462
 C         3.503163        -0.458807        -1.410324
 O         2.045174        -0.287087        -1.361577
 O         3.354941        -1.716398         0.714556
 C         2.357567        -0.726875         1.193432
 H        -0.683798         0.184130         0.780938
 H        -0.379931         0.193227        -1.065933
 H        -0.179688        -1.246659        -0.053558
 H         2.534480         2.121817        -0.318820
 H         1.781627         1.979662         1.237335
 H         3.819542         0.636098         1.992578
 H         5.115420        -0.755072        -0.082757
 H         4.045815         0.279730        -1.894237
 H         3.650456        -1.408785        -1.802375
 H         1.839950        -0.850381         2.137352
