19
Iteration:   613charge 0 multiplicity 1
 C        -0.014652        -0.176918         0.090380
 C         1.518061        -0.002618        -0.084138
 C         2.296316         1.312476         0.319240
 C         3.289793         0.453744         1.112360
 C         4.036647        -0.471186         0.107968
 C         3.624032        -0.313546        -1.384139
 O         2.053873        -0.311097        -1.417813
 O         3.304148        -1.717383         0.637069
 C         2.269594        -0.804874         1.141676
 H        -0.200346         0.369101         1.117412
 H        -0.842342         0.294575        -0.532001
 H        -0.209808        -1.296189         0.184470
 H         2.627406         1.954111        -0.443748
 H         1.597300         1.688177         1.141264
 H         3.830124         0.902426         2.004217
 H         5.210660        -0.502975         0.091486
 H         3.992178         0.603377        -1.728658
 H         3.813408        -1.321513        -2.148186
 H         1.679184        -1.117710         1.963164
