19
Iteration:  2998charge 0 multiplicity 1
 C         0.031339        -0.186391        -0.085958
 C         1.557119        -0.057260         0.005007
 C         2.223060         1.303988         0.436792
 C         3.302013         0.483435         1.048738
 C         3.973565        -0.560986         0.013441
 C         3.508627        -0.367231        -1.411380
 O         2.059817        -0.223608        -1.326714
 O         3.308436        -1.699660         0.649506
 C         2.363739        -0.768813         1.209776
 H        -0.399456         0.437454         0.694483
 H        -0.408852         0.209072        -1.051998
 H        -0.113518        -1.149776         0.268444
 H         2.572744         2.092386        -0.295989
 H         1.809439         1.925355         1.321529
 H         3.964219         0.848152         1.894230
 H         5.139349        -0.828587        -0.002007
 H         3.916762         0.562753        -1.870618
 H         3.728737        -1.293009        -2.074806
 H         1.844796        -1.109101         2.158547
