19
Iteration:  2172
 C         0.029303         0.025260        -0.127154
 C         1.539350         0.033354         0.004362
 C         2.189212         1.276919         0.459590
 C         3.353943         0.496720         1.076265
 C         3.997304        -0.508580         0.016560
 C         3.474730        -0.388333        -1.390771
 O         1.958914        -0.414447        -1.257486
 O         3.390571        -1.704666         0.628277
 C         2.411602        -0.867610         1.184813
 H        -0.554603         0.576702         0.692601
 H        -0.126875         0.293294        -1.104909
 H        -0.253253        -1.023485        -0.215837
 H         2.356230         2.186606        -0.289685
 H         1.576560         1.856111         1.145238
 H         4.025387         0.759471         1.779338
 H         5.155992        -0.466073         0.050625
 H         3.968597         0.525351        -1.847227
 H         3.809638        -1.213999        -2.077262
 H         1.965706        -1.323862         2.060637
