19
Iteration:   135charge 0 multiplicity 1
 C         0.055926        -0.118733        -0.001794
 C         1.539724         0.044331        -0.090639
 C         2.177849         1.369704         0.442804
 C         3.229914         0.438826         1.040980
 C         4.036427        -0.412482         0.054651
 C         3.488235        -0.368136        -1.400445
 O         2.038407        -0.398149        -1.287823
 O         3.413549        -1.782968         0.679837
 C         2.391083        -0.780585         1.068714
 H        -0.217671         0.538393         0.925366
 H        -0.525919         0.276040        -0.891529
 H        -0.361042        -1.070372         0.117665
 H         2.579317         2.065675        -0.342619
 H         1.633671         1.869686         1.154165
 H         3.783223         0.610943         1.938327
 H         5.078780        -0.361016         0.192445
 H         3.767910         0.522323        -1.874539
 H         3.677495        -1.360435        -1.952229
 H         1.790089        -1.190437         1.893146
