19
Iteration:  4733
 C         0.009742        -0.245443        -0.060695
 C         1.498403         0.052000        -0.060936
 C         2.279045         1.388874         0.477333
 C         3.357498         0.447762         1.095518
 C         4.018886        -0.600546         0.019600
 C         3.459006        -0.334338        -1.355807
 O         2.036682        -0.249401        -1.300523
 O         3.306089        -1.724971         0.582218
 C         2.374252        -0.785683         1.148705
 H        -0.472275         0.066885        -0.955200
 H        -0.117099        -1.293344         0.142828
 H        -0.537068         0.241231         0.794407
 H         2.601405         2.193252        -0.238933
 H         1.893856         1.950633         1.351306
 H         4.079724         0.835601         1.860943
 H         5.095534        -0.839976        -0.093823
 H         3.917322         0.639575        -1.747079
 H         3.720591        -1.169013        -2.099706
 H         1.831400        -1.023183         2.115771
