19
Iteration:   627charge 0 multiplicity 1
 C         0.008496        -0.182841         0.053547
 C         1.520758         0.051818        -0.098363
 C         2.207151         1.323707         0.386949
 C         3.313400         0.409896         1.073047
 C         4.042103        -0.586227         0.093306
 C         3.480046        -0.312973        -1.310639
 O         2.080769        -0.334951        -1.368697
 O         3.343746        -1.681951         0.631878
 C         2.345115        -0.694560         1.073575
 H        -0.366308         0.137374         1.026859
 H        -0.486021         0.225573        -0.868134
 H        -0.171285        -1.304147         0.066223
 H         2.481196         2.068657        -0.457408
 H         1.637621         2.005189         1.125395
 H         3.913070         0.688050         2.014066
 H         5.160283        -0.799372         0.179065
 H         3.857417         0.590078        -1.747950
 H         3.902165        -1.237503        -1.952642
 H         1.738155        -1.124230         1.947118
