19
Iteration:  3570
 C         0.123402        -0.307366         0.024555
 C         1.523697         0.072104        -0.014049
 C         2.339796         1.333747         0.448126
 C         3.347048         0.405129         1.133120
 C         4.011515        -0.527368         0.035183
 C         3.521091        -0.346903        -1.421523
 O         2.047371        -0.325766        -1.419908
 O         3.179347        -1.645700         0.616985
 C         2.293511        -0.658401         1.160163
 H        -0.308947         0.349002         0.764896
 H        -0.332549        -0.163070        -0.906999
 H         0.066716        -1.426892         0.326063
 H         2.539192         1.981570        -0.430561
 H         1.819252         1.870656         1.214002
 H         3.987733         0.842928         1.912217
 H         5.098944        -0.730957         0.156552
 H         3.723709         0.645565        -1.776580
 H         3.626066        -1.282650        -1.966758
 H         1.690383        -1.106343         1.967112
