19
Iteration:  2623charge 0 multiplicity 1
 C         0.022743        -0.013282        -0.122921
 C         1.484512        -0.043892         0.042704
 C         2.193141         1.305331         0.473079
 C         3.332333         0.535480         1.094892
 C         4.052521        -0.488418         0.059635
 C         3.500147        -0.411581        -1.372654
 O         2.011503        -0.431850        -1.314016
 O         3.322610        -1.717425         0.537901
 C         2.394857        -0.786661         1.211192
 H        -0.423883         0.389293         0.773841
 H        -0.079397         0.817129        -0.914478
 H        -0.230752        -1.070057        -0.239763
 H         2.415260         2.097332        -0.312892
 H         1.723516         1.787087         1.339684
 H         4.051373         1.072768         1.726824
 H         5.162919        -0.819603        -0.034262
 H         3.963364         0.530193        -1.753472
 H         3.888596        -1.227729        -2.073472
 H         1.877373        -1.276031         2.079903
