19
Iteration:   383
 C        -0.008706        -0.063256        -0.014429
 C         1.485507        -0.011216        -0.042847
 C         2.210656         1.291717         0.382548
 C         3.307289         0.418105         1.106391
 C         4.071043        -0.466601         0.062374
 C         3.531824        -0.362994        -1.353195
 O         1.989566        -0.404588        -1.371336
 O         3.442316        -1.665869         0.640578
 C         2.321191        -0.786993         1.124775
 H        -0.214176         0.032301         1.062046
 H        -0.486087         0.800183        -0.464098
 H        -0.358600        -0.873380        -0.544495
 H         2.413591         1.867218        -0.445893
 H         1.791124         1.758786         1.282166
 H         3.672369         0.647866         2.009567
 H         5.177353        -0.498126         0.120590
 H         3.858559         0.497567        -1.996819
 H         3.798143        -1.299969        -1.747390
 H         1.876440        -0.951164         2.029886
