19
Iteration:  4771
 C         0.100543        -0.242729         0.014527
 C         1.572202         0.023973        -0.057819
 C         2.264650         1.360890         0.474286
 C         3.337338         0.451637         1.032215
 C         3.955230        -0.550955         0.043397
 C         3.501123        -0.376911        -1.321050
 O         2.061151        -0.225153        -1.359267
 O         3.199919        -1.717441         0.528985
 C         2.375181        -0.742358         1.193071
 H        -0.666495         0.145547        -0.784091
 H        -0.017255        -1.393951        -0.065573
 H        -0.173405         0.214352         1.004783
 H         2.605889         2.171486        -0.150935
 H         1.754136         1.750769         1.356613
 H         3.866332         0.969706         1.821209
 H         5.037724        -0.725483         0.064427
 H         3.891007         0.509827        -1.850108
 H         3.796125        -1.245952        -1.833935
 H         1.912183        -1.310055         1.976306
