19
Iteration:   174
 C         0.056215        -0.136543        -0.165369
 C         1.526355        -0.006224        -0.006168
 C         2.162609         1.251301         0.516644
 C         3.346200         0.481191         1.025542
 C         4.037133        -0.460752         0.006012
 C         3.412717        -0.457132        -1.378267
 O         2.021951        -0.291325        -1.290396
 O         3.358569        -1.706065         0.678136
 C         2.447578        -0.752201         1.179839
 H        -0.424405         0.060441         0.762330
 H        -0.209537         0.690127        -0.825395
 H        -0.306459        -1.142078        -0.594999
 H         2.288012         2.037102        -0.281642
 H         1.586920         1.762318         1.416260
 H         3.947641         0.996010         1.768357
 H         5.165991        -0.474085         0.019425
 H         3.800215         0.338549        -2.140623
 H         3.686645        -1.391532        -1.795861
 H         1.974780        -0.874228         2.138015
