19
Iteration:  2900charge 0 multiplicity 1
 C        -0.069763         0.064536        -0.102905
 C         1.483364         0.001491        -0.055321
 C         2.250239         1.293370         0.490380
 C         3.277261         0.431975         1.117448
 C         4.045233        -0.493753        -0.003520
 C         3.470184        -0.323520        -1.407792
 O         2.020631        -0.524119        -1.327251
 O         3.454576        -1.682817         0.661128
 C         2.408673        -0.830137         1.172393
 H        -0.553588         0.066534         0.889275
 H        -0.345673         1.003835        -0.728302
 H        -0.376499        -0.891411        -0.491273
 H         2.327637         2.113099        -0.211702
 H         1.564774         1.795088         1.230995
 H         3.915184         0.768202         1.973018
 H         5.163273        -0.507976         0.137733
 H         3.993976         0.609987        -1.931576
 H         3.926116        -1.114716        -2.008253
 H         1.864640        -1.186870         2.074264
