19
Iteration:  2320
 C         0.005086        -0.033847        -0.018717
 C         1.502907         0.001379        -0.060392
 C         2.260237         1.398358         0.383897
 C         3.282106         0.420655         1.049204
 C         4.038523        -0.529436         0.052881
 C         3.419863        -0.278083        -1.339948
 O         2.029883        -0.463799        -1.299463
 O         3.445905        -1.799917         0.620574
 C         2.314791        -0.779485         1.170447
 H        -0.352709         0.598204         0.686181
 H        -0.291311         0.404812        -1.007001
 H        -0.314763        -1.021235         0.156735
 H         2.737475         1.866395        -0.514124
 H         1.726124         2.151876         1.034753
 H         3.861826         0.826477         1.994300
 H         5.066276        -0.542389         0.129585
 H         3.914302         0.691923        -1.723096
 H         3.774467        -0.991388        -2.063601
 H         1.845565        -1.089898         2.125071
