19
Iteration:  3586charge 0 multiplicity 1
 C        -0.021356        -0.249882        -0.030623
 C         1.566295         0.035556        -0.072933
 C         2.280006         1.389088         0.434584
 C         3.405003         0.486695         0.997705
 C         3.965367        -0.612215         0.029499
 C         3.515549        -0.307510        -1.359626
 O         2.060918        -0.314302        -1.296883
 O         3.250135        -1.710440         0.646349
 C         2.370853        -0.738193         1.155362
 H        -0.659264         0.331851         0.691525
 H        -0.510983        -0.198778        -1.086014
 H        -0.089781        -1.248993         0.349915
 H         2.672565         2.202934        -0.217416
 H         1.561770         1.672982         1.280770
 H         4.000954         0.700005         1.890542
 H         5.072907        -0.670791         0.036102
 H         3.881733         0.713695        -1.703204
 H         3.749811        -1.226838        -1.979459
 H         1.825665        -0.839023         2.099775
