19
Iteration:   256
 C         0.010791        -0.040331         0.037835
 C         1.520524         0.012615        -0.065844
 C         2.190564         1.285405         0.423520
 C         3.275345         0.433932         1.081060
 C         4.058635        -0.477447         0.026295
 C         3.500180        -0.376341        -1.328509
 O         2.067745        -0.416881        -1.339776
 O         3.400390        -1.691338         0.653025
 C         2.345633        -0.770341         1.025989
 H        -0.352513         0.244864         1.070748
 H        -0.504198         0.608237        -0.704436
 H        -0.306245        -1.102275         0.082238
 H         2.356106         2.098439        -0.323151
 H         1.565866         1.806391         1.079651
 H         3.715177         0.719678         2.121975
 H         5.152391        -0.448570         0.039447
 H         3.867451         0.517844        -1.942492
 H         3.908185        -1.294951        -1.973454
 H         1.755178        -1.149618         1.934275
