19
Iteration:  2778charge 0 multiplicity 1
 C        -0.036059        -0.008819        -0.087229
 C         1.508907         0.036690        -0.036390
 C         2.193552         1.255219         0.460185
 C         3.357868         0.419616         1.050750
 C         4.118884        -0.498751         0.091355
 C         3.518724        -0.380471        -1.349119
 O         1.965225        -0.402317        -1.264900
 O         3.371931        -1.681092         0.575338
 C         2.386318        -0.776475         1.127437
 H        -0.375339         0.113529         0.892489
 H        -0.581238         0.639593        -0.886410
 H        -0.347438        -0.929452        -0.464014
 H         2.421788         2.086500        -0.238561
 H         1.487976         1.668249         1.167197
 H         3.920931         0.797692         1.920079
 H         5.273462        -0.443110         0.038392
 H         3.896928         0.491625        -1.805603
 H         3.930249        -1.247020        -1.820095
 H         1.863183        -1.327300         1.950985
