19
Iteration:  4751charge 0 multiplicity 1
 C        -0.025960        -0.324988         0.056456
 C         1.557647         0.099489         0.079310
 C         2.269011         1.382501         0.490841
 C         3.350973         0.409103         1.064024
 C         4.090306        -0.585680         0.013669
 C         3.532914        -0.384264        -1.395326
 O         2.090375        -0.210030        -1.301568
 O         3.211402        -1.693102         0.533016
 C         2.319973        -0.686067         1.045880
 H        -0.547324         0.010316        -0.961711
 H         0.084990        -1.415282         0.083244
 H        -0.438618         0.232913         0.814850
 H         2.425659         1.971364        -0.406953
 H         1.608771         2.050195         1.087890
 H         3.865602         0.486307         1.964847
 H         5.112162        -0.716445         0.298795
 H         4.039471         0.368149        -1.918477
 H         3.657215        -1.316111        -1.944035
 H         1.688015        -1.051258         1.823657
