19
Iteration:  1748
 C         0.027737        -0.043853        -0.016303
 C         1.562178        -0.019071        -0.033924
 C         2.245076         1.359781         0.355370
 C         3.192505         0.495054         1.114106
 C         4.011827        -0.518005        -0.002882
 C         3.519992        -0.394055        -1.378938
 O         2.091888        -0.460451        -1.297980
 O         3.345131        -1.683040         0.671699
 C         2.330621        -0.802084         1.127158
 H        -0.273956         0.144208         1.082058
 H        -0.393098         0.692315        -0.697401
 H        -0.407570        -1.002148        -0.237986
 H         2.712771         2.047236        -0.499361
 H         1.596114         2.064630         0.954159
 H         3.794938         0.962788         1.880344
 H         5.093404        -0.574904         0.099875
 H         3.806201         0.666917        -1.794795
 H         3.989784        -1.262048        -1.898376
 H         1.872588        -1.301527         1.962515
