19
Iteration:   502
 C        -0.031430        -0.110219         0.052995
 C         1.516463         0.028387        -0.087335
 C         2.219337         1.297054         0.441551
 C         3.251086         0.419909         1.157727
 C         4.125663        -0.498257         0.067414
 C         3.562853        -0.396792        -1.421371
 O         2.043197        -0.386418        -1.370357
 O         3.337134        -1.632321         0.613118
 C         2.347063        -0.763323         1.112822
 H        -0.375865         0.082930         1.131484
 H        -0.562884         0.625675        -0.598783
 H        -0.295866        -1.120657        -0.287525
 H         2.656729         1.982922        -0.277843
 H         1.550714         1.884136         1.095544
 H         3.741837         0.711246         2.028603
 H         5.214912        -0.588569         0.123330
 H         3.919099         0.473531        -1.857382
 H         3.844332        -1.227903        -2.222801
 H         1.793277        -1.162450         1.897913
