19
Iteration:  2638charge 0 multiplicity 1
 C        -0.017958        -0.081299        -0.114316
 C         1.562469         0.018929         0.008520
 C         2.217623         1.320570         0.490366
 C         3.377561         0.398171         1.009997
 C         4.012153        -0.542023         0.032912
 C         3.461309        -0.388910        -1.319121
 O         2.055914        -0.344353        -1.263804
 O         3.339817        -1.687725         0.614389
 C         2.413428        -0.754800         1.110093
 H        -0.507139         0.365809         0.736553
 H        -0.428262         0.352963        -1.068196
 H        -0.445443        -1.048215        -0.297640
 H         2.342112         2.058457        -0.291622
 H         1.595069         1.871169         1.204995
 H         3.895129         0.670850         1.963762
 H         5.055911        -0.490052         0.136419
 H         3.763266         0.469162        -2.009332
 H         3.625264        -1.290895        -1.857079
 H         1.922327        -1.013704         2.058547
