19
Iteration:   454charge 0 multiplicity 1
 C        -0.003670        -0.162170        -0.025908
 C         1.503776        -0.002281        -0.024107
 C         2.247199         1.352983         0.406681
 C         3.359694         0.465977         1.077628
 C         4.031043        -0.587647         0.097516
 C         3.497477        -0.229060        -1.387928
 O         2.083445        -0.402000        -1.307225
 O         3.312800        -1.689201         0.606651
 C         2.336303        -0.758198         1.129084
 H        -0.324205         0.365174         0.839844
 H        -0.524619         0.242712        -0.899281
 H        -0.239307        -1.262803        -0.088064
 H         2.541010         1.865626        -0.580694
 H         1.740121         1.881546         1.225542
 H         3.917303         0.809419         2.039669
 H         5.117911        -0.798867         0.020236
 H         3.725439         0.722927        -1.786370
 H         3.796401        -1.009424        -2.058786
 H         1.712557        -1.230743         2.026766
