19
Iteration:  4327
 C         0.124152        -0.193415         0.050053
 C         1.589134         0.010598        -0.010906
 C         2.232861         1.355438         0.511935
 C         3.251267         0.413969         1.174595
 C         3.988621        -0.456594        -0.044068
 C         3.479514        -0.410782        -1.423505
 O         2.043912        -0.245288        -1.396870
 O         3.272582        -1.710900         0.566760
 C         2.363012        -0.757055         1.137668
 H        -0.341626        -0.320580        -0.989462
 H         0.064135        -1.280849         0.372138
 H        -0.332949         0.534518         0.688320
 H         2.492217         2.027835        -0.290475
 H         1.732784         1.859571         1.300295
 H         3.980866         0.660589         1.976661
 H         5.081222        -0.714314        -0.017591
 H         3.903089         0.527777        -1.963503
 H         3.757009        -1.390329        -1.736586
 H         1.715690        -1.062280         1.991878
