19
Iteration:   619charge 0 multiplicity 1
 C        -0.019381        -0.184236         0.097105
 C         1.514219         0.045407        -0.117514
 C         2.246851         1.303105         0.324816
 C         3.340901         0.430431         1.129821
 C         4.048948        -0.566666         0.102736
 C         3.556101        -0.322647        -1.356449
 O         2.068126        -0.314967        -1.398552
 O         3.350045        -1.689990         0.624273
 C         2.265020        -0.744736         1.130480
 H        -0.349874         0.252576         0.998566
 H        -0.717024         0.210571        -0.622616
 H        -0.148269        -1.241524         0.094088
 H         2.480434         2.083314        -0.482782
 H         1.619552         1.762544         1.068243
 H         3.820047         0.752477         2.034292
 H         5.096851        -0.605755         0.172758
 H         4.019536         0.624785        -1.900198
 H         3.829996        -1.075941        -1.943308
 H         1.691654        -1.129088         2.036608
