19
Iteration:  1660charge 0 multiplicity 1
 C        -0.020024        -0.205890        -0.188181
 C         1.494740        -0.007890        -0.030777
 C         2.278848         1.354733         0.490919
 C         3.382105         0.485177         1.076446
 C         4.020892        -0.538040         0.070666
 C         3.469592        -0.486237        -1.397423
 O         2.042554        -0.270020        -1.324622
 O         3.347965        -1.714756         0.672034
 C         2.366095        -0.662884         1.224752
 H        -0.431646         0.346175         0.782105
 H        -0.445438         0.389517        -0.961931
 H        -0.379439        -1.231037        -0.342070
 H         2.379572         2.035871        -0.478543
 H         1.748972         1.800358         1.335883
 H         4.053836         1.026358         1.717564
 H         5.118668        -0.537058         0.173222
 H         3.717094         0.234491        -2.092852
 H         3.676878        -1.422144        -1.911951
 H         1.871594        -1.070483         2.072280
