19
Iteration:  4166
 C         0.014697        -0.296113        -0.044778
 C         1.493976         0.103354         0.028704
 C         2.264797         1.415750         0.503556
 C         3.396191         0.521349         1.012215
 C         4.008494        -0.592855         0.020051
 C         3.504913        -0.336477        -1.324391
 O         2.038768        -0.375237        -1.273523
 O         3.250898        -1.793130         0.481759
 C         2.368656        -0.624144         1.155213
 H        -0.424287        -0.025762        -0.993922
 H        -0.095225        -1.323625        -0.054946
 H        -0.581115         0.229420         0.712626
 H         2.661554         2.180028        -0.248833
 H         1.857512         1.888894         1.414258
 H         3.922040         0.733509         1.910874
 H         5.066489        -0.727233         0.060193
 H         3.991199         0.635517        -1.731147
 H         3.785468        -1.208967        -1.944583
 H         2.018623        -0.897119         2.137097
