19
Iteration:  3258charge 0 multiplicity 1
 C         0.108450        -0.189140        -0.115048
 C         1.559160         0.019970        -0.043891
 C         2.155684         1.296730         0.461711
 C         3.438024         0.453182         1.018102
 C         4.011293        -0.526140         0.037617
 C         3.428361        -0.362533        -1.403006
 O         1.986900        -0.290150        -1.349837
 O         3.273347        -1.775909         0.744398
 C         2.430701        -0.649181         1.170185
 H        -0.499426        -0.176909         0.797764
 H        -0.332565         0.672496        -0.857184
 H        -0.115481        -1.268237        -0.401483
 H         2.225056         2.099110        -0.277755
 H         1.661094         1.636225         1.352666
 H         4.041689         0.793648         1.942523
 H         5.041933        -0.706432        -0.035384
 H         3.886130         0.529622        -1.815188
 H         3.888037        -1.221723        -1.888038
 H         1.920095        -0.733819         2.166028
