19
Iteration:  1066charge 0 multiplicity 1
 C        -0.049101        -0.197529        -0.057742
 C         1.514018         0.053795        -0.007493
 C         2.216643         1.346344         0.431556
 C         3.290412         0.451509         1.075538
 C         4.037067        -0.531009         0.021622
 C         3.609050        -0.509584        -1.400064
 O         2.025480        -0.237394        -1.322260
 O         3.381691        -1.646927         0.710468
 C         2.346205        -0.768456         1.086640
 H        -0.441973         0.001510         0.964124
 H        -0.557074         0.373503        -0.825120
 H        -0.383092        -1.244466        -0.049440
 H         2.459690         1.997959        -0.489039
 H         1.825686         2.142880         1.161697
 H         3.841411         0.785024         1.986946
 H         5.157513        -0.750308         0.128292
 H         4.026272         0.317134        -1.992795
 H         3.746169        -1.457545        -1.974774
 H         1.704285        -1.069276         1.884273
