19
Iteration:  3445
 C         0.069986        -0.164659         0.008584
 C         1.573537         0.041941        -0.013801
 C         2.243693         1.314224         0.400757
 C         3.323493         0.440146         0.994549
 C         3.977455        -0.501746         0.027418
 C         3.509343        -0.320301        -1.292254
 O         2.061918        -0.374281        -1.322048
 O         3.252816        -1.699458         0.641218
 C         2.342838        -0.757040         1.100591
 H        -0.285693         0.023308         1.025171
 H        -0.395686         0.592548        -0.682948
 H        -0.155077        -1.110384        -0.176114
 H         2.470411         1.937516        -0.428809
 H         1.676745         1.781515         1.196636
 H         3.992311         0.738480         1.795478
 H         5.000336        -0.598941         0.038185
 H         4.071395         0.579855        -1.669446
 H         3.694492        -1.057253        -2.050257
 H         1.870687        -1.256052         1.939082
