19
Iteration:  4061charge 0 multiplicity 1
 C         0.037462        -0.066217        -0.130190
 C         1.584664        -0.021609         0.048400
 C         2.260580         1.250861         0.439968
 C         3.352239         0.486653         1.167442
 C         4.016577        -0.468534         0.025663
 C         3.403012        -0.304018        -1.374529
 O         2.007875        -0.485135        -1.261576
 O         3.332326        -1.652553         0.517541
 C         2.389880        -0.780270         1.173403
 H        -0.283150         0.909261        -0.444679
 H        -0.249551        -0.803898        -0.874257
 H        -0.540300        -0.343050         0.831002
 H         2.371504         1.868765        -0.455366
 H         1.759964         1.874525         1.199346
 H         3.976010         0.943387         1.893463
 H         5.085671        -0.683931         0.136986
 H         3.714622         0.610431        -1.775431
 H         3.729806        -1.099031        -2.082657
 H         1.922634        -1.158693         2.080529
