19
Iteration:  2864
 C         0.028317        -0.113343        -0.063768
 C         1.540050         0.088847         0.030412
 C         2.226801         1.323602         0.446895
 C         3.297123         0.461300         1.052678
 C         4.016444        -0.545008         0.062042
 C         3.477307        -0.364283        -1.374565
 O         2.088264        -0.376380        -1.328690
 O         3.338063        -1.684787         0.572508
 C         2.367999        -0.799562         1.185159
 H        -0.490396         0.216690         0.810604
 H        -0.491344         0.508045        -0.869815
 H        -0.218282        -1.161926        -0.169555
 H         2.481066         2.030666        -0.391508
 H         1.594947         1.698995         1.258044
 H         3.811397         0.849738         1.936060
 H         5.169328        -0.656396         0.129044
 H         3.877822         0.596493        -1.927670
 H         3.675805        -1.322796        -1.926725
 H         1.786662        -1.316438         1.987952
