19
Iteration:  3441charge 0 multiplicity 1
 C         0.103467        -0.171128         0.042548
 C         1.571983         0.002962        -0.031027
 C         2.252031         1.327110         0.413122
 C         3.351461         0.421074         0.974324
 C         3.944248        -0.485968         0.029298
 C         3.489841        -0.317991        -1.320736
 O         2.087599        -0.342973        -1.336581
 O         3.257554        -1.708592         0.662658
 C         2.288954        -0.735454         1.118854
 H        -0.257006         0.123899         1.010771
 H        -0.371484         0.416102        -0.702035
 H        -0.227465        -1.341700        -0.200385
 H         2.454579         2.072485        -0.453972
 H         1.635101         1.803181         1.223985
 H         4.059665         0.672111         1.803635
 H         5.100615        -0.741635         0.050243
 H         3.985372         0.566635        -1.694272
 H         3.857155        -0.987650        -2.132900
 H         1.677657        -1.162307         1.965841
