19
Iteration:   851charge 0 multiplicity 1
 C         0.080970        -0.034375         0.129112
 C         1.570854        -0.057033        -0.077670
 C         2.200825         1.306888         0.303731
 C         3.223053         0.507798         1.148272
 C         4.025411        -0.454763         0.086851
 C         3.501504        -0.328221        -1.350853
 O         2.112366        -0.535755        -1.414015
 O         3.295865        -1.686028         0.635034
 C         2.336377        -0.790975         1.109935
 H        -0.189612         0.092136         1.256322
 H        -0.268272         0.830503        -0.397507
 H        -0.389533        -0.917824        -0.332344
 H         2.579396         1.754474        -0.722705
 H         1.519614         2.114430         0.764918
 H         3.911400         0.876934         2.018069
 H         5.110228        -0.385018         0.280292
 H         3.791442         0.676179        -1.775311
 H         4.013899        -1.029842        -1.977324
 H         1.584986        -1.184368         1.958514
