19
Iteration:  1489charge 0 multiplicity 1
 C         0.113714        -0.184167        -0.007226
 C         1.569244         0.015030        -0.029304
 C         2.311809         1.318544         0.389721
 C         3.299478         0.440866         1.110075
 C         3.995173        -0.493534         0.001527
 C         3.527066        -0.295388        -1.383214
 O         2.063208        -0.449746        -1.333675
 O         3.209464        -1.718559         0.652789
 C         2.258092        -0.625152         1.144275
 H        -0.210400         0.099020         0.971279
 H        -0.459349         0.316329        -0.809181
 H        -0.045447        -1.240501         0.026176
 H         2.594730         1.785252        -0.526853
 H         1.727531         2.088377         1.079804
 H         4.056010         0.501583         1.894934
 H         5.097842        -0.553156         0.091472
 H         3.731263         0.628123        -1.750067
 H         3.960812        -1.072245        -2.119843
 H         1.746709        -0.894366         2.130009
