19
Iteration:   973charge 0 multiplicity 1
 C         0.114840        -0.098207         0.051537
 C         1.581341        -0.027929        -0.015995
 C         2.251296         1.354059         0.277136
 C         3.197115         0.479761         1.087360
 C         3.991299        -0.533215         0.126527
 C         3.486375        -0.305424        -1.358584
 O         2.035263        -0.459745        -1.347831
 O         3.364672        -1.732573         0.637030
 C         2.296594        -0.728269         1.091805
 H        -0.168181         0.030068         1.093332
 H        -0.163070         0.581717        -0.722027
 H        -0.248862        -1.120318        -0.023482
 H         2.471773         1.927477        -0.645010
 H         1.743887         2.076963         0.943089
 H         3.688144         0.922099         2.011364
 H         5.085053        -0.590608         0.115055
 H         3.913608         0.743897        -1.741418
 H         3.954045        -1.036893        -2.024934
 H         1.758750        -1.072692         2.052285
