19
Iteration:  4034
 C        -0.028024        -0.209091        -0.080719
 C         1.532126         0.089615        -0.026169
 C         2.259001         1.406773         0.496957
 C         3.349644         0.447136         1.026657
 C         4.060493        -0.571756        -0.026868
 C         3.470610        -0.272307        -1.372836
 O         2.042601        -0.424292        -1.303637
 O         3.328085        -1.759757         0.702655
 C         2.354584        -0.738354         1.091253
 H        -0.584155         0.792334        -0.089682
 H        -0.391714        -0.891873        -0.904866
 H        -0.333355        -0.650159         0.830094
 H         2.342855         2.145190        -0.338124
 H         1.911893         1.802786         1.444233
 H         4.085893         0.876625         1.843127
 H         5.145785        -0.835172         0.009937
 H         3.811924         0.813639        -1.595975
 H         3.715604        -0.967128        -2.160854
 H         1.846471        -0.889730         2.082595
