19
Iteration:  3502
 C         0.082671         0.064423        -0.146904
 C         1.580530        -0.021024        -0.046616
 C         2.146105         1.301504         0.438898
 C         3.315945         0.483020         1.087693
 C         4.054906        -0.530591         0.033044
 C         3.371924        -0.328723        -1.418617
 O         1.965998        -0.523413        -1.304409
 O         3.461193        -1.728562         0.659714
 C         2.409804        -0.808564         1.235398
 H        -0.387914        -0.065600         0.888155
 H        -0.227399         1.116613        -0.417421
 H        -0.353421        -0.455238        -0.946736
 H         2.243541         2.170957        -0.197820
 H         1.440808         1.665484         1.184135
 H         3.947521         0.866155         1.893493
 H         5.149441        -0.418570         0.015731
 H         3.634369         0.732269        -1.596714
 H         3.682489        -1.197763        -2.045280
 H         1.960364        -1.235252         2.147607
