19
Iteration:  4960charge 0 multiplicity 1
 C         0.050690        -0.006078        -0.089933
 C         1.530867        -0.031843        -0.009602
 C         2.202295         1.303009         0.447800
 C         3.277182         0.412609         1.116460
 C         4.029009        -0.541994        -0.008326
 C         3.463919        -0.324241        -1.401129
 O         1.995498        -0.394875        -1.272865
 O         3.393417        -1.723969         0.611691
 C         2.412172        -0.796801         1.184597
 H        -0.570207         0.526628        -0.936725
 H        -0.297172        -0.998142        -0.363496
 H        -0.374950         0.346121         0.884580
 H         2.397891         2.115095        -0.229879
 H         1.586585         1.744211         1.247117
 H         4.061450         0.827330         1.703119
 H         5.126858        -0.431979         0.037143
 H         3.874278         0.716522        -1.802299
 H         3.883224        -1.018750        -2.156136
 H         1.958774        -1.028827         2.124437
