19
Iteration:   125
 C         0.097160        -0.100849         0.018022
 C         1.567091        -0.054804        -0.066994
 C         2.219962         1.370040         0.339574
 C         3.273645         0.439342         1.068875
 C         4.019635        -0.466348         0.060356
 C         3.457700        -0.272241        -1.336833
 O         2.043226        -0.437224        -1.295370
 O         3.359466        -1.728880         0.636615
 C         2.324346        -0.801940         1.096128
 H        -0.259930         0.479029         0.967462
 H        -0.483635         0.302474        -0.868693
 H        -0.099700        -1.171186         0.266540
 H         2.483000         2.291882        -0.367078
 H         1.569602         1.752514         1.100141
 H         3.901096         0.757455         1.919367
 H         5.075590        -0.489307         0.143847
 H         3.782001         0.640258        -1.826292
 H         3.869739        -1.089162        -2.087554
 H         1.668899        -1.099781         1.945522
