19
Iteration:   251
 C         0.044777        -0.050951         0.050612
 C         1.528665        -0.012401        -0.081582
 C         2.207383         1.290939         0.402812
 C         3.228346         0.486079         1.082726
 C         4.082183        -0.530497         0.025043
 C         3.504919        -0.356927        -1.370375
 O         2.073941        -0.413144        -1.289181
 O         3.379625        -1.671867         0.639063
 C         2.325573        -0.797082         1.056805
 H        -0.143600         0.226510         1.089992
 H        -0.595630         0.549497        -0.596088
 H        -0.274226        -1.088287        -0.134233
 H         2.649317         1.980356        -0.325685
 H         1.457271         1.895048         1.135400
 H         3.625634         0.796972         1.969142
 H         5.190949        -0.485098         0.041303
 H         3.779453         0.578051        -1.853872
 H         3.761455        -1.166512        -1.906780
 H         1.697637        -1.198149         1.792893
