19
Iteration:  1560
 C         0.018286        -0.019707        -0.209179
 C         1.533022        -0.007964        -0.029661
 C         2.191421         1.302122         0.489476
 C         3.408116         0.449596         1.087258
 C         3.974511        -0.507271         0.021497
 C         3.431446        -0.445463        -1.353887
 O         1.980450        -0.449774        -1.363554
 O         3.430108        -1.664623         0.689611
 C         2.404209        -0.724946         1.253533
 H        -0.485748        -0.170371         0.775424
 H        -0.358495         0.821566        -0.723908
 H        -0.394700        -0.939987        -0.668964
 H         2.517818         2.061994        -0.322614
 H         1.599910         1.803851         1.235652
 H         4.031759         0.845182         1.878552
 H         5.091950        -0.541146        -0.013742
 H         3.812517         0.623287        -1.657094
 H         3.714540        -1.167843        -2.130383
 H         1.834672        -0.986719         2.109205
