19
Iteration:  2924charge 0 multiplicity 1
 C         0.005855        -0.021149        -0.123617
 C         1.513539        -0.026759        -0.010443
 C         2.235073         1.281748         0.390043
 C         3.323425         0.456956         1.010615
 C         4.095160        -0.525814         0.075852
 C         3.397398        -0.289934        -1.290605
 O         2.030883        -0.453939        -1.254237
 O         3.390188        -1.731872         0.604282
 C         2.380735        -0.781791         1.138428
 H        -0.429499        -0.029434         0.964454
 H        -0.174008         0.983140        -0.499539
 H        -0.489914        -0.920812        -0.605827
 H         2.384749         1.994247        -0.425111
 H         1.666445         1.896275         1.116731
 H         3.821323         0.830998         1.913799
 H         5.165675        -0.568019         0.189980
 H         3.715246         0.771207        -1.666449
 H         3.847417        -0.913116        -2.069520
 H         1.807011        -1.119834         2.002231
