19
Iteration:  3745charge 0 multiplicity 1
 C         0.026135        -0.188682        -0.082020
 C         1.568168        -0.025597        -0.018581
 C         2.259924         1.368268         0.477681
 C         3.404605         0.507618         1.145061
 C         4.006237        -0.538828         0.001306
 C         3.474120        -0.455138        -1.363725
 O         1.977226        -0.347353        -1.359863
 O         3.277156        -1.634770         0.655058
 C         2.392098        -0.714885         1.134399
 H        -0.393157         0.284541         0.766869
 H        -0.345252         0.242695        -0.943269
 H        -0.284630        -1.339823         0.040858
 H         2.588505         1.949149        -0.379363
 H         1.668619         1.900270         1.191071
 H         4.183432         0.929319         1.793113
 H         5.071970        -0.740724         0.030043
 H         3.837204         0.381517        -2.003391
 H         3.671347        -1.313699        -1.946398
 H         1.816229        -0.927576         2.004399
