19
Iteration:  4105
 C         0.014411        -0.018239        -0.013146
 C         1.499297        -0.006160        -0.094777
 C         2.185332         1.252192         0.466356
 C         3.363986         0.449117         1.056028
 C         4.120513        -0.521436         0.045683
 C         3.462219        -0.289017        -1.290489
 O         1.967065        -0.414711        -1.361768
 O         3.445784        -1.700159         0.677004
 C         2.314520        -0.801886         1.034740
 H        -0.393546         0.398314        -0.924975
 H        -0.381302        -1.029535         0.291977
 H        -0.327369         0.672098         0.884546
 H         2.497253         2.135763        -0.110612
 H         1.615299         1.677437         1.303818
 H         3.868615         0.788719         1.954851
 H         5.204308        -0.642996        -0.187406
 H         3.720846         0.617354        -1.731344
 H         3.834587        -1.117669        -1.948078
 H         1.697939        -1.359056         1.772242
