19
Iteration:  1231
 C         0.060416        -0.197496        -0.065910
 C         1.562227         0.017650         0.053081
 C         2.350949         1.381449         0.306924
 C         3.311963         0.497243         1.081393
 C         3.915551        -0.571780         0.026875
 C         3.530288        -0.229512        -1.399027
 O         2.081699        -0.467360        -1.302439
 O         3.165980        -1.667476         0.638406
 C         2.377649        -0.767151         1.207750
 H        -0.383087        -0.158947         0.999752
 H        -0.393268         0.292702        -0.888266
 H        -0.107312        -1.279686         0.001679
 H         2.557665         2.026390        -0.626005
 H         1.742350         1.999863         0.938182
 H         4.094866         0.863738         1.900192
 H         5.029203        -0.812038         0.119763
 H         3.991579         0.905034        -1.438138
 H         3.765296        -0.966807        -2.184894
 H         1.888416        -1.197398         2.073947
