19
Iteration:  4786
 C         0.093834        -0.154041        -0.013270
 C         1.558147         0.054138        -0.042114
 C         2.211696         1.333494         0.487927
 C         3.370608         0.440421         1.139914
 C         4.000268        -0.578412         0.029513
 C         3.463939        -0.298788        -1.426276
 O         2.026072        -0.334966        -1.364552
 O         3.293700        -1.730550         0.631333
 C         2.378325        -0.770179         1.129832
 H        -0.387401         0.509096        -0.784480
 H        -0.221701        -1.172139        -0.189890
 H        -0.385356         0.002924         0.905997
 H         2.404934         2.078226        -0.323254
 H         1.486671         1.718519         1.255805
 H         4.151200         0.650618         1.858398
 H         5.083909        -0.702749         0.103682
 H         3.852134         0.658548        -1.709244
 H         3.695515        -1.056522        -2.237896
 H         1.745472        -0.877454         1.989944
