19
Iteration:   476charge 0 multiplicity 1
 C         0.134886        -0.168542         0.148154
 C         1.592943         0.005075        -0.126010
 C         2.255242         1.359152         0.344195
 C         3.232684         0.444138         1.094746
 C         3.961250        -0.438176         0.093097
 C         3.552388        -0.355679        -1.287085
 O         2.028331        -0.350937        -1.371787
 O         3.287865        -1.755322         0.578817
 C         2.309803        -0.775631         1.070800
 H        -0.135118         0.340216         1.022530
 H        -0.429116         0.272410        -0.681132
 H        -0.123037        -1.236989         0.014423
 H         2.733414         1.977076        -0.500207
 H         1.617062         1.794769         1.074419
 H         3.814649         0.741402         2.052234
 H         5.056611        -0.341625         0.024443
 H         3.931663         0.680281        -1.510380
 H         3.907643        -1.097413        -1.950927
 H         1.556650        -1.195119         1.886375
