19
Iteration:  1351
 C         0.111464        -0.206420        -0.069979
 C         1.549272        -0.000889        -0.024943
 C         2.294314         1.297570         0.347370
 C         3.358000         0.493447         1.007667
 C         4.021331        -0.550208         0.058379
 C         3.483119        -0.285118        -1.309256
 O         2.078056        -0.483305        -1.239726
 O         3.165688        -1.680541         0.574237
 C         2.313773        -0.624239         1.190314
 H        -0.142634        -0.453584         1.101346
 H        -0.360022         0.883443        -0.287084
 H        -0.368551        -1.022082        -0.716266
 H         2.603196         2.001332        -0.495644
 H         1.804446         1.813715         1.143110
 H         4.155279         1.035588         1.657404
 H         5.138352        -0.810810         0.302510
 H         3.643588         0.690731        -1.597482
 H         3.850543        -1.004734        -2.038824
 H         1.659094        -0.925650         1.987688
