19
Iteration:   398charge 0 multiplicity 1
 C        -0.001502        -0.028398        -0.118812
 C         1.526824        -0.072672         0.011471
 C         2.217187         1.269276         0.505042
 C         3.283554         0.445451         1.041318
 C         4.044558        -0.450708         0.032362
 C         3.434209        -0.419698        -1.387682
 O         2.035784        -0.401557        -1.277893
 O         3.406773        -1.638335         0.659386
 C         2.413574        -0.775748         1.110429
 H        -0.623943        -0.007255         0.782921
 H        -0.186627         0.857217        -0.755375
 H        -0.413421        -0.981736        -0.577177
 H         2.508189         2.123894        -0.249908
 H         1.523875         1.888196         1.210787
 H         4.113951         0.828317         1.831594
 H         5.180539        -0.471358         0.043280
 H         3.750768         0.458302        -1.886352
 H         3.728724        -1.273179        -2.007753
 H         1.781974        -1.315462         1.983613
