19
Iteration:  4016
 C         0.031091        -0.197851         0.025483
 C         1.537818        -0.035198        -0.015343
 C         2.199488         1.310953         0.431532
 C         3.387771         0.471269         1.053601
 C         4.017274        -0.602988         0.036732
 C         3.506600        -0.346692        -1.409574
 O         2.036455        -0.254957        -1.396572
 O         3.271692        -1.687211         0.655897
 C         2.379929        -0.701339         1.169374
 H        -0.498890         0.731385        -0.070574
 H        -0.168158        -0.811983        -0.807879
 H        -0.281368        -0.800921         0.997175
 H         2.529567         2.091235        -0.242345
 H         1.485651         1.814064         1.103917
 H         3.991283         0.788847         1.801532
 H         5.061698        -0.795388         0.185986
 H         3.972042         0.601081        -1.727191
 H         3.891841        -1.164949        -2.107779
 H         1.826943        -1.071308         2.018082
