19
Iteration:  2113
 C         0.141921        -0.157377         0.043959
 C         1.574187        -0.014866        -0.035952
 C         2.162059         1.372448         0.391816
 C         3.348866         0.445812         1.045091
 C         3.967537        -0.569295         0.023247
 C         3.565978        -0.309430        -1.363527
 O         2.082414        -0.374548        -1.246314
 O         3.210566        -1.711403         0.554502
 C         2.325628        -0.714031         1.112376
 H        -0.228099         0.356859         0.914699
 H        -0.393482         0.503569        -0.800254
 H        -0.189494        -1.211595         0.143207
 H         2.531080         1.863754        -0.475472
 H         1.489250         1.977865         1.073909
 H         4.075420         0.682490         1.926948
 H         5.012578        -0.643530         0.212279
 H         3.908641         0.669960        -1.798753
 H         3.731092        -1.221703        -1.968951
 H         1.802130        -1.161558         2.038955
