19
Iteration:   771charge 0 multiplicity 1
 C        -0.002245        -0.221023        -0.159436
 C         1.497301         0.030441         0.065412
 C         2.253896         1.346860         0.443670
 C         3.400791         0.532703         1.027567
 C         4.028840        -0.580868         0.006392
 C         3.522079        -0.325904        -1.371721
 O         2.038443        -0.393906        -1.288375
 O         3.242636        -1.682702         0.662661
 C         2.404364        -0.697695         1.181662
 H        -0.635677         0.071872         0.652304
 H        -0.353338         0.141225        -1.129508
 H        -0.082752        -1.310002        -0.179598
 H         2.308676         2.067979        -0.405184
 H         1.832632         1.848308         1.268605
 H         3.972516         0.952211         1.788327
 H         5.000369        -0.882240        -0.025706
 H         3.873154         0.608333        -1.794572
 H         3.860195        -1.292688        -1.874794
 H         1.927639        -0.909573         2.197062
