19
Iteration:   144charge 0 multiplicity 1
 C        -0.032205        -0.109200        -0.015719
 C         1.501855         0.060988        -0.040642
 C         2.178964         1.343369         0.518422
 C         3.254454         0.450814         1.098020
 C         4.055972        -0.463778         0.020082
 C         3.486694        -0.467729        -1.381290
 O         2.040539        -0.367108        -1.378861
 O         3.458118        -1.689738         0.669272
 C         2.384877        -0.803214         1.072077
 H        -0.470678         0.445730         0.846078
 H        -0.366790         0.397659        -0.930112
 H        -0.327636        -1.067422         0.022217
 H         2.485349         1.900888        -0.244066
 H         1.650176         1.941337         1.181602
 H         3.805363         0.825518         1.904405
 H         5.145199        -0.446030         0.011328
 H         3.880165         0.337056        -1.986754
 H         3.847089        -1.349043        -1.857981
 H         1.871443        -1.130929         1.959243
