19
Iteration:  2133
 C        -0.020216        -0.108838        -0.100189
 C         1.496078         0.041530         0.038053
 C         2.304491         1.336896         0.434920
 C         3.370858         0.452256         1.071932
 C         4.041617        -0.539516         0.038865
 C         3.478268        -0.366619        -1.343029
 O         1.995084        -0.383637        -1.347531
 O         3.318024        -1.719546         0.629397
 C         2.389450        -0.747679         1.141837
 H        -0.575535         0.438220         0.635440
 H        -0.470172         0.245747        -1.121741
 H        -0.185028        -1.169054         0.217907
 H         2.528670         2.086388        -0.258332
 H         1.700183         1.628586         1.312108
 H         3.956069         0.957489         1.973608
 H         5.089250        -0.706276         0.031175
 H         3.821707         0.645710        -1.819457
 H         3.908146        -1.002793        -2.135748
 H         1.951725        -1.210344         2.070360
