19
Iteration:  1809
 C         0.070029        -0.213342        -0.157650
 C         1.530242         0.040436         0.071908
 C         2.251856         1.324222         0.396703
 C         3.357084         0.415220         0.977734
 C         4.001431        -0.537990         0.033516
 C         3.579310        -0.369421        -1.372468
 O         1.977871        -0.289552        -1.273323
 O         3.246468        -1.689232         0.714194
 C         2.385943        -0.713507         1.161028
 H        -0.569098         0.344027         0.587855
 H        -0.338194         0.109257        -1.212862
 H        -0.060838        -1.314580         0.055305
 H         2.415828         1.998834        -0.396948
 H         1.631820         1.784312         1.201307
 H         4.087281         0.760142         1.722868
 H         5.136148        -0.700289         0.080183
 H         3.822367         0.520054        -1.862924
 H         3.712175        -1.316899        -1.938159
 H         1.922117        -0.787153         2.189778
