19
Iteration:  1245charge 0 multiplicity 1
 C         0.095798        -0.205170        -0.070078
 C         1.583824         0.008700        -0.038736
 C         2.262705         1.343467         0.399998
 C         3.374155         0.467454         1.066746
 C         4.031274        -0.578472         0.061143
 C         3.436690        -0.270798        -1.339536
 O         2.049841        -0.480114        -1.253224
 O         3.202190        -1.704481         0.584406
 C         2.344228        -0.634765         1.159186
 H        -0.387566         0.374924         0.716927
 H        -0.252206         0.227908        -0.953421
 H        -0.092937        -1.249184        -0.093110
 H         2.654228         2.006445        -0.452760
 H         1.707291         1.990048         1.094392
 H         3.952937         0.812969         1.945585
 H         5.072102        -0.755345         0.113360
 H         3.577000         0.791327        -1.714974
 H         3.884646        -0.869683        -2.110371
 H         1.767220        -0.866853         2.097205
