19
Iteration:  3675
 C         0.034001        -0.026813         0.014142
 C         1.500980         0.001273        -0.100138
 C         2.239365         1.315221         0.360436
 C         3.324950         0.467161         1.021379
 C         4.017276        -0.466849         0.031751
 C         3.513397        -0.339496        -1.343848
 O         2.035245        -0.465797        -1.325916
 O         3.347491        -1.730494         0.682485
 C         2.361848        -0.768473         1.194992
 H        -0.209478        -0.491061         1.045529
 H        -0.462493         1.028481        -0.097112
 H        -0.430767        -0.701618        -0.675207
 H         2.517644         1.833207        -0.609168
 H         1.492138         1.949848         1.017900
 H         3.823328         0.830602         1.932679
 H         5.124678        -0.551043         0.101653
 H         3.846635         0.566232        -1.759277
 H         3.898612        -1.167490        -2.065101
 H         1.838468        -1.263903         2.063025
