19
Iteration:  3787
 C        -0.052942         0.036448         0.002239
 C         1.502318        -0.013155        -0.070079
 C         2.188591         1.316327         0.392291
 C         3.325049         0.481454         1.050919
 C         4.089797        -0.550342         0.100187
 C         3.438047        -0.287845        -1.358533
 O         2.038145        -0.552344        -1.303291
 O         3.404644        -1.706043         0.625533
 C         2.427618        -0.779109         1.123520
 H        -0.237499         1.032347         0.320566
 H        -0.470650        -0.035347        -0.966769
 H        -0.628731        -0.743403         0.739928
 H         2.568576         2.035812        -0.414890
 H         1.613427         2.059410         1.089405
 H         3.929796         0.667426         1.898552
 H         5.170532        -0.567557         0.112172
 H         3.698640         0.653461        -1.724666
 H         3.953799        -0.997474        -2.011231
 H         1.761557        -1.344978         1.719973
