19
Iteration:  3947
 C         0.068561         0.008452        -0.078508
 C         1.612849        -0.085963         0.005608
 C         2.202243         1.251863         0.462705
 C         3.333641         0.475883         1.038275
 C         3.964228        -0.510189         0.013588
 C         3.427614        -0.216412        -1.343868
 O         2.024958        -0.451222        -1.246352
 O         3.358253        -1.727313         0.636132
 C         2.390177        -0.835009         1.117672
 H        -0.050582         0.458960        -1.164854
 H        -0.483573        -1.027456        -0.003841
 H        -0.433978         0.677235         0.613680
 H         2.298419         2.044511        -0.247746
 H         1.505028         1.621192         1.169292
 H         4.299059         0.845930         1.560755
 H         5.078196        -0.577134        -0.147593
 H         3.644772         0.779928        -1.635948
 H         3.712379        -0.894783        -2.186367
 H         1.772209        -1.064033         2.032372
