19
Iteration:  3534charge 0 multiplicity 1
 C        -0.001156        -0.111133        -0.036149
 C         1.488971         0.085290        -0.036550
 C         2.258940         1.301246         0.387111
 C         3.357332         0.423750         0.988512
 C         4.089845        -0.555634         0.070856
 C         3.482814        -0.329670        -1.339911
 O         2.048918        -0.386921        -1.287171
 O         3.327843        -1.680882         0.608533
 C         2.301914        -0.810589         1.179949
 H        -0.367770        -0.044442         1.037620
 H        -0.599267         0.647484        -0.640228
 H        -0.252604        -1.089201        -0.290948
 H         2.397918         2.050869        -0.379475
 H         1.749504         1.776080         1.250364
 H         3.929231         0.882274         1.799878
 H         5.154739        -0.406828         0.170902
 H         3.938624         0.510247        -1.926589
 H         3.880057        -1.092323        -2.066642
 H         1.859959        -1.110294         2.140598
