19
Iteration:   245
 C         0.077599        -0.090927         0.055466
 C         1.556970        -0.028126        -0.089887
 C         2.207613         1.342409         0.371817
 C         3.181717         0.496054         1.087743
 C         4.079404        -0.556550         0.053042
 C         3.493802        -0.320573        -1.392547
 O         2.068370        -0.420502        -1.262986
 O         3.358005        -1.653704         0.608697
 C         2.316625        -0.809434         1.098806
 H         0.009944         0.167481         1.156878
 H        -0.592052         0.597859        -0.514422
 H        -0.272924        -1.087096        -0.295835
 H         2.817409         1.889252        -0.372230
 H         1.612309         1.872481         1.017579
 H         3.804921         0.960723         1.983509
 H         5.172276        -0.659364         0.124339
 H         3.782058         0.721326        -1.772243
 H         3.737494        -1.253945        -2.108747
 H         1.605142        -1.335819         1.840219
