19
Iteration:  2158charge 0 multiplicity 1
 C         0.017173        -0.065182        -0.188630
 C         1.512356        -0.030121         0.044461
 C         2.262095         1.359622         0.513536
 C         3.296955         0.375232         1.051799
 C         4.047605        -0.535695        -0.009658
 C         3.361026        -0.362286        -1.375787
 O         2.008716        -0.388283        -1.280044
 O         3.460463        -1.693282         0.680260
 C         2.386149        -0.745768         1.147922
 H        -0.502162         0.685240         0.471317
 H        -0.154515         0.454771        -1.229770
 H        -0.478032        -1.016429         0.011151
 H         2.567893         1.989920        -0.321373
 H         1.791521         1.813787         1.413315
 H         3.907678         0.726058         1.953727
 H         5.128778        -0.649590        -0.070686
 H         3.657610         0.584107        -1.981036
 H         3.677141        -1.131522        -2.127937
 H         1.763111        -1.025142         2.084647
