19
Iteration:  4700
 C        -0.009041         0.014737        -0.107745
 C         1.533711        -0.034602        -0.040772
 C         2.200110         1.284848         0.496196
 C         3.308213         0.455648         1.148546
 C         4.062724        -0.537618        -0.039681
 C         3.419488        -0.268907        -1.393701
 O         2.038181        -0.477907        -1.259142
 O         3.395431        -1.691847         0.598837
 C         2.402814        -0.828717         1.168826
 H        -0.221845         0.792429        -0.808347
 H        -0.416314        -0.889702        -0.476963
 H        -0.233489         0.428635         0.889486
 H         2.416555         2.074975        -0.259330
 H         1.575640         1.773854         1.275605
 H         4.009171         0.828132         1.906529
 H         5.118233        -0.871664        -0.049485
 H         3.755722         0.798164        -1.688218
 H         3.635361        -0.979396        -2.291239
 H         1.871555        -1.191892         2.093708
