19
Iteration:  4049
 C         0.040300        -0.099331        -0.101585
 C         1.498097        -0.030739         0.000282
 C         2.271174         1.334507         0.432118
 C         3.384177         0.405965         0.991416
 C         4.037252        -0.537744         0.059198
 C         3.425285        -0.280337        -1.354635
 O         2.018664        -0.436964        -1.220109
 O         3.326714        -1.665127         0.597517
 C         2.390694        -0.711592         1.162137
 H        -0.509167         0.769650        -0.391211
 H        -0.022412        -0.769387        -0.927939
 H        -0.489845        -0.626505         0.825918
 H         2.643819         2.119076        -0.157898
 H         1.568257         1.666357         1.180478
 H         3.890834         0.513296         1.862021
 H         5.101404        -0.450006        -0.020479
 H         3.569018         0.654518        -1.697312
 H         3.795437        -1.008083        -2.135653
 H         1.827114        -1.123903         1.964462
