19
Iteration:  2313charge 0 multiplicity 1
 C         0.022577        -0.003351        -0.071463
 C         1.523941         0.003183        -0.039789
 C         2.265653         1.308836         0.378068
 C         3.277571         0.393814         1.062115
 C         4.001723        -0.534581         0.039291
 C         3.454839        -0.291940        -1.360667
 O         2.031744        -0.443580        -1.286711
 O         3.412136        -1.705700         0.649461
 C         2.358637        -0.798673         1.205046
 H        -0.415270         0.603028         0.855971
 H        -0.394137         0.272907        -1.008725
 H        -0.392765        -1.033601         0.105888
 H         2.716201         2.044401        -0.275073
 H         1.668125         1.974110         0.936357
 H         3.976019         0.723637         1.776707
 H         5.144460        -0.449826         0.082495
 H         3.826633         0.626892        -1.856139
 H         3.581474        -1.021053        -2.222599
 H         1.792709        -1.205417         2.058137
