19
Iteration:  1223charge 0 multiplicity 1
 C         0.016576        -0.224647         0.011185
 C         1.550681         0.048557         0.016867
 C         2.313207         1.361719         0.290886
 C         3.323400         0.459110         1.053509
 C         3.963116        -0.576417         0.026010
 C         3.540912        -0.253676        -1.364000
 O         2.103832        -0.417058        -1.331307
 O         3.210841        -1.694639         0.638366
 C         2.306967        -0.747462         1.261722
 H        -0.530556        -0.007376         0.964238
 H        -0.438616         0.366689        -0.701075
 H        -0.021229        -1.251850        -0.346996
 H         2.666450         1.986186        -0.632603
 H         1.849638         2.070303         0.983594
 H         4.073659         0.966494         1.714596
 H         5.003429        -0.602858         0.080305
 H         3.959733         0.720116        -1.719523
 H         3.935635        -0.922530        -2.101614
 H         1.746451        -1.266274         2.100175
