19
Iteration:  1147charge 0 multiplicity 1
 C        -0.013514        -0.010072        -0.197470
 C         1.505863        -0.027249         0.048374
 C         2.182446         1.289315         0.459638
 C         3.364795         0.510830         1.055440
 C         4.089033        -0.513680         0.113723
 C         3.413694        -0.405018        -1.322037
 O         1.978887        -0.431010        -1.291209
 O         3.468897        -1.696455         0.625456
 C         2.378699        -0.782226         1.120880
 H        -0.642319         0.336696         0.703881
 H        -0.269490         0.789613        -0.963529
 H        -0.226763        -0.976162        -0.657621
 H         2.447537         1.937017        -0.455564
 H         1.607232         1.765316         1.231725
 H         4.012900         1.094117         1.759299
 H         5.138701        -0.626943         0.139296
 H         3.751032         0.479927        -1.784448
 H         3.642687        -1.290800        -1.900729
 H         1.788405        -1.136638         2.047317
