19
Iteration:  4547
 C        -0.127487        -0.027175        -0.001808
 C         1.504461        -0.016320        -0.072349
 C         2.303829         1.341126         0.472678
 C         3.327511         0.442047         1.053132
 C         4.031360        -0.504995         0.045167
 C         3.478529        -0.236004        -1.372009
 O         2.019651        -0.431935        -1.309647
 O         3.464575        -1.787627         0.647745
 C         2.391596        -0.865315         1.066167
 H        -0.708884         0.191436        -0.964217
 H        -0.580290        -0.802913         0.582338
 H        -0.412484         0.939080         0.605643
 H         2.458002         2.003100        -0.358436
 H         1.620623         1.771014         1.142302
 H         3.901064         0.727976         1.878177
 H         5.110062        -0.400547         0.070153
 H         3.647606         0.744809        -1.761858
 H         3.856320        -0.930066        -2.072575
 H         1.913118        -1.261426         1.980467
