19
Iteration:  3952
 C         0.054216        -0.007818        -0.110434
 C         1.567853        -0.077650         0.010753
 C         2.212448         1.243423         0.484240
 C         3.376506         0.458697         1.030614
 C         3.978135        -0.467387         0.046019
 C         3.399821        -0.261646        -1.359391
 O         2.043055        -0.439693        -1.290261
 O         3.375023        -1.728251         0.647207
 C         2.374675        -0.811871         1.120797
 H        -0.289516         0.454907        -0.976777
 H        -0.422995        -0.920135        -0.084525
 H        -0.377722         0.565262         0.774758
 H         2.505389         2.115118        -0.184493
 H         1.484020         1.627861         1.273878
 H         4.170997         0.748520         1.668860
 H         5.034853        -0.615318        -0.020322
 H         3.560895         0.818577        -1.867702
 H         3.706621        -0.938524        -2.183764
 H         1.840854        -1.006597         2.026096
