19
Iteration:  1167charge 0 multiplicity 1
 C         0.052207         0.006490        -0.191092
 C         1.539584        -0.045256        -0.041042
 C         2.147574         1.281959         0.524834
 C         3.262784         0.435427         1.079188
 C         3.979091        -0.459467        -0.027623
 C         3.500239        -0.519422        -1.452428
 O         2.033497        -0.363350        -1.320375
 O         3.417531        -1.637546         0.731938
 C         2.431238        -0.777458         1.202860
 H        -0.337953         0.073051         0.944604
 H        -0.320143         0.842465        -0.693312
 H        -0.432887        -0.848428        -0.644201
 H         2.430040         2.062383        -0.359893
 H         1.592262         1.675514         1.362447
 H         3.898887         0.699945         2.050603
 H         5.025882        -0.213143        -0.021343
 H         3.855222         0.324150        -2.063888
 H         3.579223        -1.548207        -1.732960
 H         2.006772        -1.040850         2.241080
