19
Iteration:  4271
 C         0.077457        -0.076533        -0.102445
 C         1.591541         0.005489        -0.001673
 C         2.217990         1.281649         0.456629
 C         3.340911         0.486216         1.082827
 C         4.009765        -0.574483         0.000159
 C         3.397832        -0.240237        -1.407562
 O         2.013890        -0.445933        -1.299992
 O         3.312077        -1.746420         0.616370
 C         2.392698        -0.718986         1.219648
 H        -0.423818         0.793669        -0.662912
 H        -0.212408        -1.119799        -0.570839
 H        -0.369339        -0.290180         0.836934
 H         2.489102         2.132178        -0.138950
 H         1.637805         1.684592         1.279633
 H         4.182581         1.069474         1.634338
 H         5.102446        -0.897106         0.126540
 H         3.668169         0.832500        -1.823840
 H         3.910902        -0.919927        -2.092723
 H         1.920988        -1.089335         2.184070
