19
Iteration:  1505
 C         0.006086        -0.199063         0.034210
 C         1.531612         0.045183        -0.063903
 C         2.258834         1.369192         0.368246
 C         3.344066         0.466322         1.067531
 C         4.055228        -0.524162         0.094063
 C         3.527885        -0.428020        -1.376550
 O         2.074369        -0.355648        -1.330376
 O         3.244247        -1.655893         0.624124
 C         2.356711        -0.754776         1.132505
 H        -0.497469        -0.023753         1.039324
 H        -0.535686         0.482386        -0.617205
 H        -0.297573        -1.209278        -0.338410
 H         2.606114         2.178544        -0.361986
 H         1.697372         1.903912         1.096992
 H         3.816026         0.949460         1.941254
 H         5.137632        -0.751132         0.210090
 H         4.022854         0.534503        -1.969182
 H         3.718189        -1.380000        -1.901110
 H         1.733314        -1.113214         1.930194
