19
Iteration:  4210charge 0 multiplicity 1
 C        -0.004928         0.028174         0.000263
 C         1.549775        -0.079844        -0.061701
 C         2.193654         1.318126         0.392754
 C         3.281643         0.393644         1.098493
 C         4.023171        -0.499292         0.082375
 C         3.437915        -0.352106        -1.296793
 O         1.986303        -0.367227        -1.394870
 O         3.444953        -1.703569         0.639380
 C         2.450638        -0.835649         1.131572
 H        -0.391463         0.934332        -0.423549
 H        -0.390933        -0.744660        -0.568733
 H        -0.326272        -0.041983         1.064109
 H         2.523490         1.947267        -0.500385
 H         1.509653         1.879507         1.064247
 H         3.990099         0.830220         1.739700
 H         5.082779        -0.497777        -0.013541
 H         3.646958         0.543746        -1.814841
 H         3.832533        -1.215564        -1.829693
 H         1.906124        -1.103736         2.011504
