19
Iteration:  3569
 C         0.130949        -0.312160         0.027942
 C         1.520717         0.071045        -0.010819
 C         2.339605         1.340101         0.453217
 C         3.348904         0.412594         1.134496
 C         4.013855        -0.532573         0.034248
 C         3.518894        -0.349312        -1.417648
 O         2.051121        -0.327280        -1.423020
 O         3.176429        -1.647024         0.614249
 C         2.291846        -0.662586         1.151550
 H        -0.311507         0.360404         0.790488
 H        -0.321153        -0.131842        -0.926873
 H         0.068099        -1.402111         0.318796
 H         2.546806         1.940121        -0.449281
 H         1.795564         1.886746         1.204370
 H         3.970903         0.852222         1.932491
 H         5.109084        -0.694921         0.159366
 H         3.699070         0.680600        -1.773216
 H         3.594942        -1.317913        -1.967118
 H         1.689372        -1.102787         1.975443
