19
Iteration:  3094charge 0 multiplicity 1
 C        -0.044657        -0.115611        -0.024362
 C         1.486163         0.028360        -0.039355
 C         2.243779         1.368216         0.430999
 C         3.324852         0.413924         0.985487
 C         3.995767        -0.508734         0.009516
 C         3.551638        -0.371224        -1.375225
 O         2.116479        -0.358236        -1.317976
 O         3.353259        -1.736901         0.709962
 C         2.341315        -0.762819         1.141206
 H        -0.287728        -0.365519         0.974424
 H        -0.686070         0.837201        -0.222554
 H        -0.331003        -1.039882        -0.503292
 H         2.438271         1.975476        -0.461006
 H         1.622469         1.911897         1.118789
 H         3.880130         0.815545         1.894597
 H         5.077926        -0.503112         0.044668
 H         3.906208         0.675695        -1.781340
 H         3.847820        -1.231089        -2.086022
 H         1.697454        -1.100569         2.015618
