19
Iteration:  4646charge 0 multiplicity 1
 C         0.037177        -0.035287         0.021903
 C         1.575816        -0.023679        -0.025782
 C         2.247538         1.363613         0.434122
 C         3.261065         0.450991         1.122538
 C         3.930285        -0.503091         0.030554
 C         3.483047        -0.348528        -1.432110
 O         2.002250        -0.371669        -1.414489
 O         3.393375        -1.726086         0.633926
 C         2.396045        -0.816857         1.196072
 H        -0.535616         0.830864        -0.298444
 H        -0.083918        -0.819298        -0.719324
 H        -0.221573        -0.656060         0.958372
 H         2.637292         2.031767        -0.340122
 H         1.721343         1.829654         1.230132
 H         3.959956         0.641537         1.941934
 H         5.024644        -0.645049         0.139720
 H         3.837062         0.626316        -1.813608
 H         3.767874        -1.141985        -2.112010
 H         1.852142        -1.098219         2.136167
