19
Iteration:   590charge 0 multiplicity 1
 C         0.110913        -0.111233         0.101340
 C         1.564330        -0.012699        -0.073009
 C         2.156577         1.355897         0.356569
 C         3.265814         0.428350         1.131103
 C         3.983339        -0.533528         0.094359
 C         3.482293        -0.297264        -1.330162
 O         2.108031        -0.403409        -1.362360
 O         3.356043        -1.699232         0.576049
 C         2.316964        -0.761504         1.075040
 H        -0.279048         0.366644         1.066060
 H        -0.341798         0.546539        -0.678603
 H        -0.291498        -1.113218        -0.110582
 H         2.508326         1.861076        -0.497244
 H         1.518931         1.970441         0.999128
 H         3.803968         0.618610         2.048166
 H         5.110299        -0.557931         0.128762
 H         3.834325         0.605309        -1.809192
 H         3.877998        -1.295109        -1.905142
 H         1.735864        -1.097160         1.878053
