19
Iteration:   304
 C         0.069428        -0.139331        -0.187055
 C         1.512519         0.008766         0.080436
 C         2.163437         1.389158         0.478293
 C         3.383259         0.403085         0.995738
 C         4.046801        -0.545367        -0.013887
 C         3.427654        -0.331297        -1.380509
 O         2.028161        -0.390514        -1.201134
 O         3.383616        -1.699015         0.627427
 C         2.344186        -0.734257         1.194120
 H        -0.661979         0.396272         0.357877
 H         0.066493         0.209246        -1.209602
 H        -0.252293        -1.208070        -0.032148
 H         2.297788         2.193432        -0.238231
 H         1.732227         1.917778         1.268096
 H         4.097279         0.529506         1.776319
 H         5.120363        -0.480787         0.072790
 H         3.691104         0.524660        -1.999275
 H         3.661606        -1.228240        -2.059350
 H         1.755867        -0.951036         2.049666
