19
Iteration:  4533charge 0 multiplicity 1
 C        -0.008316         0.081044         0.038645
 C         1.507929        -0.102088         0.019680
 C         2.162115         1.221467         0.351360
 C         3.247781         0.355161         1.076804
 C         4.036935        -0.478845         0.004706
 C         3.447525        -0.227425        -1.379795
 O         2.061792        -0.412281        -1.301532
 O         3.443926        -1.681018         0.597882
 C         2.411133        -0.857482         1.140650
 H        -0.220374         0.134271        -1.063295
 H        -0.550100        -0.744550         0.502841
 H        -0.211874         0.923460         0.585842
 H         2.629608         1.928230        -0.366711
 H         1.695630         1.789078         1.205719
 H         3.782433         0.747117         1.930953
 H         5.131560        -0.608438         0.037538
 H         3.801482         0.749318        -1.658680
 H         3.816465        -1.025548        -2.135296
 H         1.836725        -1.228167         1.998022
