19
Iteration:   792charge 0 multiplicity 1
 C         0.071525        -0.203059        -0.234539
 C         1.539895        -0.009488        -0.038936
 C         2.234847         1.331437         0.497563
 C         3.386437         0.477898         1.020505
 C         4.005541        -0.566688         0.034412
 C         3.387715        -0.384358        -1.409188
 O         2.008848        -0.386771        -1.277653
 O         3.318449        -1.647041         0.704029
 C         2.430709        -0.657783         1.279348
 H        -0.558459         0.163267         0.528829
 H        -0.069491         0.338774        -1.191301
 H        -0.297325        -1.213417        -0.354877
 H         2.436371         2.170214        -0.108987
 H         1.635928         1.650474         1.278708
 H         4.111130         0.782734         1.699056
 H         5.042354        -0.598879         0.056271
 H         3.765599         0.692782        -1.782345
 H         3.534954        -1.267146        -2.165515
 H         1.944949        -0.952143         2.239124
