19
Iteration:  2178
 C         0.011377         0.025166        -0.069865
 C         1.555204         0.042236        -0.058815
 C         2.156997         1.285382         0.448418
 C         3.362008         0.488970         1.071006
 C         3.994451        -0.495924         0.059687
 C         3.487562        -0.378623        -1.349156
 O         1.990198        -0.437076        -1.272658
 O         3.355588        -1.697013         0.575286
 C         2.460553        -0.864349         1.210668
 H        -0.590836         0.493072         0.687176
 H        -0.219905         0.555209        -1.117427
 H        -0.257333        -1.041100        -0.171884
 H         2.322662         1.944921        -0.347409
 H         1.504601         1.774946         1.210268
 H         4.255529         0.848658         1.785714
 H         5.045782        -0.543657         0.120325
 H         3.944728         0.416557        -1.966040
 H         3.789207        -1.189037        -2.012229
 H         1.797900        -1.270335         2.035110
