19
Iteration:  4505charge 0 multiplicity 1
 C         0.002973        -0.078880        -0.074375
 C         1.525674        -0.011784        -0.002596
 C         2.253107         1.349399         0.479968
 C         3.357173         0.465255         1.112890
 C         4.006018        -0.457034         0.052913
 C         3.418321        -0.310225        -1.367101
 O         2.018564        -0.484943        -1.261743
 O         3.326363        -1.702829         0.496005
 C         2.447686        -0.801117         1.105758
 H        -0.196456         0.317368        -1.068403
 H        -0.357446        -1.086774         0.103706
 H        -0.422170         0.530669         0.832058
 H         2.631736         2.193164        -0.067801
 H         1.768322         1.699769         1.340277
 H         3.941224         0.853038         1.944798
 H         5.071007        -0.654276         0.110559
 H         3.761540         0.666069        -1.849258
 H         3.779428        -1.114970        -1.918996
 H         1.833721        -1.191338         1.935276
