19
Iteration:  2236
 C         0.064568        -0.188486        -0.016241
 C         1.559522        -0.013052        -0.102251
 C         2.341743         1.345794         0.351649
 C         3.347552         0.473077         1.070186
 C         3.960997        -0.527704         0.069852
 C         3.491466        -0.350306        -1.310515
 O         1.971445        -0.333230        -1.346974
 O         3.276885        -1.727074         0.662132
 C         2.408876        -0.751403         1.170761
 H        -0.441865        -0.306154         1.043450
 H        -0.409859         0.736921        -0.415693
 H        -0.348929        -0.922502        -0.733705
 H         2.663449         2.049883        -0.510913
 H         1.704574         1.974524         0.985340
 H         3.827210         0.735151         1.975715
 H         5.082620        -0.707374         0.036501
 H         3.776603         0.658472        -1.509626
 H         3.616408        -1.130985        -2.068959
 H         1.922501        -0.900298         2.158026
