19
Iteration:  1756
 C         0.020984        -0.073403        -0.042831
 C         1.512025         0.033003         0.016118
 C         2.244784         1.349282         0.379001
 C         3.241814         0.460704         1.093678
 C         4.020937        -0.509587         0.028570
 C         3.483550        -0.419959        -1.316162
 O         2.105711        -0.468961        -1.356151
 O         3.379473        -1.651336         0.629130
 C         2.302549        -0.764985         1.149271
 H        -0.345939         0.352864         0.928100
 H        -0.483830         0.575724        -0.654281
 H        -0.336101        -1.078774        -0.217304
 H         2.577899         2.013138        -0.440447
 H         1.742134         1.792650         1.188465
 H         3.836944         0.918479         1.887318
 H         5.161421        -0.539433        -0.028289
 H         4.040298         0.421283        -1.879082
 H         3.925352        -1.292995        -1.997920
 H         1.662633        -1.061335         1.958856
