19
Iteration:   127
 C         0.096694        -0.090534         0.009241
 C         1.562429        -0.045943        -0.080944
 C         2.214091         1.371268         0.346247
 C         3.262083         0.434855         1.055221
 C         4.017886        -0.446649         0.060585
 C         3.460027        -0.290523        -1.347291
 O         2.039216        -0.426230        -1.278665
 O         3.370606        -1.751181         0.648031
 C         2.339362        -0.799720         1.089781
 H        -0.230889         0.468528         0.921455
 H        -0.503405         0.298302        -0.840010
 H        -0.144348        -1.250837         0.291591
 H         2.508646         2.337156        -0.380723
 H         1.524182         1.796924         1.180359
 H         3.915918         0.706558         1.971478
 H         5.112524        -0.443583         0.194493
 H         3.812715         0.661809        -1.887216
 H         3.819624        -1.139444        -2.087375
 H         1.661520        -1.114745         1.934387
