19
Iteration:   673
 C        -0.015410        -0.077300        -0.268490
 C         1.472358        -0.037545         0.025507
 C         2.206574         1.274882         0.549701
 C         3.399704         0.499639         1.064666
 C         4.078665        -0.497919        -0.045151
 C         3.458245        -0.373020        -1.338447
 O         2.003365        -0.486626        -1.244755
 O         3.309876        -1.636925         0.620438
 C         2.453616        -0.732059         1.215725
 H        -0.556147         0.038556         0.629366
 H        -0.249544         0.672183        -1.017468
 H        -0.317553        -1.021094        -0.682206
 H         2.441950         2.022797        -0.344256
 H         1.727658         1.930184         1.261873
 H         3.927669         0.799605         1.928853
 H         5.119138        -0.542610        -0.024165
 H         3.768125         0.596959        -1.668639
 H         3.838052        -1.119890        -2.014558
 H         2.104539        -1.004434         2.287239
