19
Iteration:  1336charge 0 multiplicity 1
 C        -0.016770        -0.125370        -0.017959
 C         1.565966         0.058499        -0.013139
 C         2.259221         1.410342         0.399509
 C         3.373593         0.466003         1.044758
 C         3.993255        -0.573307         0.060427
 C         3.522851        -0.332786        -1.414792
 O         2.085599        -0.533564        -1.295667
 O         3.243864        -1.660626         0.666335
 C         2.348804        -0.721209         1.129472
 H        -0.477995        -0.366424         0.863525
 H        -0.684754         0.639379        -0.481345
 H        -0.023259        -0.948018        -0.721103
 H         2.496196         2.097755        -0.370803
 H         1.631822         1.958087         1.226028
 H         3.870476         0.721899         1.945373
 H         5.091338        -0.715050         0.040643
 H         3.849791         0.678622        -1.815432
 H         3.957078        -1.057353        -2.184361
 H         1.917115        -1.010763         2.114648
