19
Iteration:   295charge 0 multiplicity 1
 C         0.053157        -0.089101        -0.210268
 C         1.539857         0.051256         0.044032
 C         2.152363         1.283573         0.478999
 C         3.335752         0.428625         1.089430
 C         4.024902        -0.494994        -0.054940
 C         3.396339        -0.406347        -1.437029
 O         2.054406        -0.350642        -1.187463
 O         3.387333        -1.682433         0.678716
 C         2.424795        -0.765278         1.161429
 H        -0.555858         0.561423         0.431569
 H        -0.225585         0.096253        -1.244760
 H        -0.179641        -1.107002        -0.075785
 H         2.293497         1.964055        -0.316433
 H         1.555031         1.708080         1.394883
 H         3.953972         0.671157         1.850091
 H         5.123350        -0.661779        -0.116682
 H         3.759060         0.484270        -1.896842
 H         3.578871        -1.204195        -2.002921
 H         1.969928        -0.992943         2.069664
