19
Iteration:  3854charge 0 multiplicity 1
 C        -0.028572        -0.172311        -0.007036
 C         1.505421         0.010666        -0.035481
 C         2.252464         1.295078         0.490073
 C         3.391385         0.411069         0.942152
 C         4.037952        -0.594458         0.048514
 C         3.544563        -0.397719        -1.336600
 O         2.054408        -0.226026        -1.356232
 O         3.322434        -1.643114         0.646041
 C         2.326731        -0.769363         1.140165
 H        -0.536473         0.587658        -0.522053
 H        -0.290359        -1.074286        -0.481269
 H        -0.543133        -0.316825         1.062234
 H         2.226375         2.114295        -0.321241
 H         1.797097         1.866011         1.382955
 H         4.034276         0.947979         1.642203
 H         5.096581        -0.698472         0.237494
 H         3.833548         0.481860        -1.808481
 H         3.543683        -1.224395        -2.000081
 H         1.916411        -1.088297         2.071287
