19
Iteration:   966charge 0 multiplicity 1
 C         0.090061        -0.133169         0.056103
 C         1.555668        -0.020599        -0.078015
 C         2.273716         1.338599         0.326126
 C         3.251630         0.484093         1.091643
 C         3.943700        -0.497559         0.052426
 C         3.552203        -0.311323        -1.364024
 O         2.038922        -0.423447        -1.345611
 O         3.347802        -1.743075         0.707791
 C         2.310341        -0.722681         1.088128
 H        -0.178402         0.260678         1.035262
 H        -0.550942         0.513930        -0.695215
 H        -0.236407        -1.195875        -0.038152
 H         2.484284         1.928960        -0.557287
 H         1.546819         1.986367         1.015570
 H         3.799409         0.726037         1.936243
 H         5.109606        -0.456307         0.144361
 H         3.894451         0.567437        -1.801070
 H         3.879810        -1.163934        -1.994055
 H         1.799620        -1.074371         1.895617
