19
Iteration:  2421charge 0 multiplicity 1
 C         0.009897        -0.086637        -0.083362
 C         1.568537        -0.040426         0.017205
 C         2.209037         1.389163         0.426169
 C         3.297635         0.489841         1.123163
 C         4.040379        -0.574610         0.042181
 C         3.459787        -0.394416        -1.422801
 O         2.004291        -0.386433        -1.373814
 O         3.369787        -1.710487         0.664259
 C         2.382792        -0.744691         1.177191
 H        -0.358140        -0.066915         1.025805
 H        -0.234870         0.826427        -0.575151
 H        -0.254615        -0.981297        -0.695273
 H         2.699680         1.860279        -0.429607
 H         1.713577         2.020801         1.232863
 H         3.895552         1.062121         1.908605
 H         5.134641        -0.686271         0.052737
 H         3.873128         0.607470        -1.722148
 H         3.685440        -1.353418        -1.974683
 H         1.704848        -1.119776         1.977473
