19
Iteration:  4443charge 0 multiplicity 1
 C         0.028515        -0.171207         0.071895
 C         1.501510         0.020211         0.002772
 C         2.182043         1.315228         0.415774
 C         3.315848         0.419967         1.036059
 C         3.995495        -0.571717         0.035839
 C         3.547042        -0.380982        -1.437940
 O         2.092770        -0.221422        -1.345065
 O         3.322421        -1.697330         0.639263
 C         2.391798        -0.754841         1.124595
 H        -0.595193         0.740980        -0.043904
 H        -0.399275        -0.914970        -0.678459
 H        -0.251333        -0.649454         1.030297
 H         2.370825         1.862594        -0.588076
 H         1.731768         1.978844         1.275442
 H         4.018453         0.795184         1.870320
 H         5.088042        -0.732422         0.188694
 H         3.928621         0.528234        -1.875673
 H         3.665827        -1.362203        -2.062661
 H         1.718179        -0.980251         1.991508
