19
Iteration:  1222charge 0 multiplicity 1
 C         0.015679        -0.227911         0.014544
 C         1.545693         0.049520         0.010342
 C         2.305904         1.358680         0.295293
 C         3.324703         0.454133         1.046461
 C         3.969566        -0.575060         0.029676
 C         3.536960        -0.262721        -1.358053
 O         2.104482        -0.409820        -1.332121
 O         3.218332        -1.698682         0.636492
 C         2.300572        -0.741391         1.262494
 H        -0.540813         0.021669         0.970349
 H        -0.439747         0.355805        -0.658432
 H        -0.018811        -1.220404        -0.387361
 H         2.685354         1.971620        -0.636963
 H         1.858892         2.062663         0.982783
 H         4.088361         0.981880         1.729534
 H         5.028958        -0.602639         0.092144
 H         3.947868         0.743647        -1.761329
 H         3.960003        -0.928432        -2.095610
 H         1.733396        -1.235427         2.094080
