19
Iteration:  1142charge 0 multiplicity 1
 C        -0.009707        -0.004837        -0.201592
 C         1.491601         0.004679         0.034461
 C         2.208147         1.290807         0.450292
 C         3.372101         0.520670         1.030363
 C         4.061445        -0.546976         0.134398
 C         3.459392        -0.368590        -1.319418
 O         1.964717        -0.461710        -1.261538
 O         3.453459        -1.717116         0.613136
 C         2.369552        -0.783699         1.101188
 H        -0.593919         0.186218         0.705967
 H        -0.304261         0.649708        -1.002300
 H        -0.318780        -1.031092        -0.500453
 H         2.442878         1.872604        -0.463804
 H         1.715855         1.873425         1.282465
 H         3.972335         1.106400         1.778195
 H         5.211490        -0.421935         0.189948
 H         3.679118         0.723580        -1.658060
 H         3.639436        -1.290723        -1.912919
 H         1.900226        -1.078394         2.007374
