19
Iteration:  2695charge 0 multiplicity 1
 C         0.043322        -0.165708        -0.012410
 C         1.574541         0.024698         0.015745
 C         2.268394         1.320530         0.424132
 C         3.335744         0.416621         1.031943
 C         4.081627        -0.574033         0.058313
 C         3.516116        -0.292395        -1.394389
 O         2.091476        -0.354803        -1.276030
 O         3.184542        -1.682227         0.578554
 C         2.305602        -0.719082         1.115412
 H        -0.345096         0.026311         1.055037
 H        -0.455397         0.428867        -0.641959
 H         0.038370        -1.260336        -0.083158
 H         2.434968         1.909530        -0.469380
 H         1.686273         1.824882         1.231141
 H         3.678874         0.875130         1.940747
 H         5.125120        -0.695240         0.106568
 H         3.874266         0.668396        -1.946628
 H         3.773834        -1.148919        -2.037034
 H         1.730392        -1.081057         1.942133
