19
Iteration:  3282
 C         0.035108        -0.214420        -0.062892
 C         1.515763         0.027288        -0.020343
 C         2.241905         1.429431         0.481852
 C         3.328270         0.482217         1.045092
 C         3.998866        -0.626230         0.034752
 C         3.489043        -0.394566        -1.435694
 O         2.079725        -0.357360        -1.299461
 O         3.309162        -1.641039         0.653954
 C         2.331684        -0.709094         1.130825
 H        -0.392715        -0.678649         0.911551
 H        -0.651390         0.704284        -0.389459
 H        -0.121259        -1.122123        -0.558482
 H         2.545956         2.122499        -0.264705
 H         1.679650         1.903090         1.274776
 H         4.126034         0.920659         1.668508
 H         5.052820        -0.801398         0.121550
 H         4.036922         0.446900        -1.769017
 H         3.813095        -1.307414        -2.006342
 H         1.861868        -1.062754         2.060568
