19
Iteration:   889
 C        -0.061700        -0.180285        -0.108470
 C         1.519595        -0.002689        -0.018603
 C         2.238515         1.367787         0.446799
 C         3.417814         0.471056         1.062553
 C         4.047148        -0.513812         0.076271
 C         3.474054        -0.373752        -1.343058
 O         2.021735        -0.447063        -1.320787
 O         3.308286        -1.678229         0.676931
 C         2.428086        -0.659222         1.135483
 H        -0.711430         0.122448         0.701984
 H        -0.438575         0.473443        -1.017501
 H        -0.296869        -1.222423        -0.465250
 H         2.478368         1.941869        -0.415607
 H         1.623920         1.963765         1.171692
 H         4.107040         0.787404         1.776765
 H         5.192635        -0.690426         0.144549
 H         3.751281         0.539264        -1.768207
 H         3.795862        -1.218816        -2.005323
 H         1.918996        -0.921109         1.977482
