19
Iteration:  1152
 C        -0.012439        -0.008518        -0.179768
 C         1.516006        -0.053317         0.028209
 C         2.172333         1.286558         0.441426
 C         3.343630         0.485182         1.082129
 C         4.087235        -0.467825         0.053740
 C         3.382745        -0.447249        -1.318875
 O         1.999990        -0.395616        -1.303816
 O         3.456598        -1.670187         0.658887
 C         2.399613        -0.784124         1.175796
 H        -0.607368         0.317298         0.626612
 H        -0.139270         0.858811        -0.905185
 H        -0.271046        -0.927186        -0.739640
 H         2.338306         2.049603        -0.282577
 H         1.493601         1.752315         1.211998
 H         4.006131         0.905006         1.832145
 H         5.198173        -0.785030         0.025273
 H         3.882888         0.350342        -2.043354
 H         3.768608        -1.313251        -1.937317
 H         1.820193        -1.204521         1.952145
