19
Iteration:  4337charge 0 multiplicity 1
 C         0.120270        -0.209249         0.014437
 C         1.552524        -0.033198        -0.000638
 C         2.243987         1.355106         0.605042
 C         3.307838         0.447216         1.095887
 C         3.974848        -0.512963         0.008206
 C         3.449997        -0.378943        -1.435325
 O         2.060639        -0.317042        -1.379950
 O         3.320321        -1.653359         0.580470
 C         2.308521        -0.754951         1.081292
 H        -0.294209         0.066587        -1.014816
 H        -0.309939        -1.103583         0.604328
 H        -0.246149         0.606720         0.567947
 H         2.704735         2.067210        -0.021276
 H         1.602070         1.852419         1.289109
 H         3.984013         0.727758         1.964373
 H         5.110279        -0.638215         0.063476
 H         3.920730         0.439746        -2.107062
 H         3.715520        -1.215366        -2.121594
 H         1.683064        -1.150169         1.941178
