19
Iteration:  2062
 C         0.027461        -0.052608        -0.055991
 C         1.571726         0.026378         0.007836
 C         2.222355         1.316017         0.411260
 C         3.355691         0.443483         1.103981
 C         4.020139        -0.487167        -0.014768
 C         3.365893        -0.366531        -1.358700
 O         2.045783        -0.395834        -1.333772
 O         3.363809        -1.753394         0.725953
 C         2.401556        -0.768716         1.107906
 H        -0.635211        -0.327708         0.815633
 H        -0.360744         0.828746        -0.469367
 H        -0.098708        -0.851395        -0.757203
 H         2.477895         1.913259        -0.533645
 H         1.741578         1.846403         1.241139
 H         3.772902         0.806043         1.981509
 H         5.165517        -0.534892        -0.014314
 H         3.758900         0.638435        -1.942020
 H         3.721045        -1.087138        -2.144341
 H         1.790996        -1.097517         1.940448
