19
Iteration:  1833
 C        -0.021238        -0.186620        -0.041143
 C         1.535847         0.032541        -0.045871
 C         2.256743         1.429241         0.394645
 C         3.381521         0.476740         1.097758
 C         3.980860        -0.619743         0.119299
 C         3.517887        -0.365615        -1.320948
 O         2.072080        -0.429085        -1.345925
 O         3.317721        -1.665788         0.607645
 C         2.335683        -0.703106         1.106899
 H        -0.478283         0.255840         0.958905
 H        -0.568067         0.334231        -0.822715
 H        -0.239221        -1.256835        -0.032807
 H         2.540761         1.983144        -0.507987
 H         1.675870         2.045766         1.027456
 H         4.038703         0.828298         1.880438
 H         5.124005        -0.704276         0.064921
 H         3.631168         0.626458        -1.665947
 H         3.860095        -1.232233        -1.989433
 H         1.795398        -1.043926         1.975657
