19
Iteration:  1606charge 0 multiplicity 1
 C         0.019931        -0.077697         0.017524
 C         1.511132        -0.007941        -0.049313
 C         2.273760         1.287817         0.345344
 C         3.285906         0.428404         1.128624
 C         4.011881        -0.493403         0.079878
 C         3.547476        -0.285811        -1.343733
 O         2.103881        -0.499344        -1.385559
 O         3.212259        -1.664912         0.606847
 C         2.415622        -0.725688         1.171582
 H        -0.480767         0.343461         0.982627
 H        -0.401503         0.319144        -0.872720
 H        -0.399225        -1.080336         0.142252
 H         2.591663         1.923659        -0.505020
 H         1.553944         1.877924         0.866488
 H         3.965397         0.764202         1.871562
 H         5.070717        -0.565064         0.195519
 H         3.724619         0.734668        -1.783372
 H         4.038816        -1.010475        -1.902359
 H         1.951726        -1.111044         2.067366
