19
Iteration:   733charge 0 multiplicity 1
 C         0.054225        -0.127068         0.143647
 C         1.552195        -0.002593        -0.116246
 C         2.278539         1.308876         0.329379
 C         3.258237         0.489982         1.101467
 C         3.975132        -0.495746         0.147928
 C         3.522036        -0.268730        -1.328131
 O         2.063802        -0.459777        -1.433881
 O         3.308749        -1.679735         0.648817
 C         2.326440        -0.763488         1.077601
 H        -0.257118         0.286293         1.135711
 H        -0.527731         0.562841        -0.526675
 H        -0.172559        -1.174617        -0.206346
 H         2.691356         1.911926        -0.455552
 H         1.549536         1.839410         1.012363
 H         3.757605         0.877119         2.064672
 H         5.137977        -0.707512         0.147037
 H         4.063111         0.474217        -2.089718
 H         3.838801        -1.203834        -1.854371
 H         1.817525        -1.247785         1.867678
