19
Iteration:  1810charge 0 multiplicity 1
 C         0.061961        -0.217821        -0.161764
 C         1.526215         0.038006         0.072660
 C         2.260729         1.318849         0.393192
 C         3.353418         0.421976         0.981220
 C         4.014352        -0.530786         0.035823
 C         3.580109        -0.365465        -1.368800
 O         1.974712        -0.290410        -1.274284
 O         3.239817        -1.693786         0.713345
 C         2.391708        -0.713674         1.159630
 H        -0.563711         0.341965         0.621885
 H        -0.313351         0.096154        -1.161280
 H        -0.081771        -1.291442         0.055210
 H         2.427712         2.027334        -0.383864
 H         1.660733         1.765560         1.158011
 H         4.057613         0.773180         1.728117
 H         5.150395        -0.718381         0.059533
 H         3.835137         0.523974        -1.841734
 H         3.680865        -1.328479        -1.939480
 H         1.911594        -0.771387         2.144536
