19
Iteration:  1837charge 0 multiplicity 1
 C        -0.007108        -0.158353        -0.027585
 C         1.537632         0.053379        -0.030607
 C         2.262556         1.419942         0.389550
 C         3.342655         0.453718         1.088459
 C         3.974662        -0.583952         0.107810
 C         3.566520        -0.366061        -1.323807
 O         2.045977        -0.461529        -1.342075
 O         3.317120        -1.661027         0.614258
 C         2.338655        -0.724284         1.092355
 H        -0.328295         0.147502         0.935522
 H        -0.581895         0.349766        -0.771497
 H        -0.208462        -1.222039        -0.015778
 H         2.548511         2.042183        -0.511372
 H         1.554681         2.055909         0.966103
 H         4.079029         0.741584         1.866742
 H         5.026272        -0.718948         0.083772
 H         3.732290         0.687954        -1.668169
 H         3.879294        -1.161195        -1.963224
 H         1.766020        -1.015612         1.972636
