19
Iteration:  2326charge 0 multiplicity 1
 C         0.004692        -0.059547        -0.005455
 C         1.504101         0.011042        -0.031719
 C         2.274056         1.431907         0.368367
 C         3.290270         0.456261         1.079751
 C         4.034395        -0.527888         0.071823
 C         3.447521        -0.291248        -1.327879
 O         2.012080        -0.463003        -1.307543
 O         3.436238        -1.828271         0.605548
 C         2.323994        -0.760662         1.097378
 H        -0.390662         0.733220         0.788395
 H        -0.334236         0.407016        -0.956451
 H        -0.380233        -1.134327         0.117556
 H         2.570185         1.758185        -0.692711
 H         1.819332         2.108573         1.097502
 H         3.724495         0.762759         1.970497
 H         5.211823        -0.648259         0.071396
 H         3.644462         0.755227        -1.541223
 H         4.016535        -1.087786        -1.891236
 H         1.860048        -1.041220         2.044329
