19
Iteration:  4045
 C         0.023530        -0.144879        -0.085504
 C         1.485625         0.006845        -0.013786
 C         2.268196         1.374731         0.443386
 C         3.367876         0.374295         0.963190
 C         4.060479        -0.532970         0.003780
 C         3.445657        -0.274781        -1.332911
 O         2.010959        -0.435669        -1.226357
 O         3.326733        -1.703270         0.649659
 C         2.371492        -0.713062         1.130440
 H        -0.543647         0.810673        -0.339279
 H        -0.107678        -0.797667        -0.986660
 H        -0.376627        -0.623461         0.784236
 H         2.612265         2.286240        -0.087873
 H         1.602483         1.743653         1.220196
 H         4.010151         0.604817         1.913842
 H         5.174218        -0.608124        -0.028352
 H         3.701902         0.802059        -1.728778
 H         3.867146        -0.948273        -2.073849
 H         1.843719        -1.052611         2.057706
