19
Iteration:   323charge 0 multiplicity 1
 C        -0.028087        -0.202722        -0.125763
 C         1.495027         0.025923        -0.015373
 C         2.296912         1.332936         0.459670
 C         3.361676         0.533211         1.068379
 C         4.025855        -0.551675         0.043084
 C         3.471195        -0.336053        -1.313070
 O         2.038987        -0.431933        -1.279025
 O         3.265901        -1.676520         0.578026
 C         2.445211        -0.735837         1.137779
 H        -0.586705         0.161174         0.761190
 H        -0.472447         0.315578        -1.009433
 H        -0.273675        -1.345208        -0.006192
 H         2.515624         2.158117        -0.331792
 H         1.809054         1.882477         1.262068
 H         4.048299         1.000901         1.942793
 H         5.097745        -0.773851         0.040319
 H         3.801683         0.729657        -1.649401
 H         3.884923        -1.069142        -2.202677
 H         1.944709        -1.035576         2.156321
