19
Iteration:  3683charge 0 multiplicity 1
 C        -0.004807        -0.075771         0.023018
 C         1.520897        -0.000920        -0.032181
 C         2.225634         1.325370         0.314192
 C         3.297013         0.489373         1.050285
 C         4.033039        -0.545265         0.077180
 C         3.539293        -0.326737        -1.377868
 O         2.027116        -0.428928        -1.397340
 O         3.306622        -1.718477         0.658276
 C         2.404632        -0.763778         1.232005
 H        -0.375581        -0.489463         1.009057
 H        -0.565274         0.943532        -0.115749
 H        -0.358041        -0.730075        -0.737893
 H         2.478334         1.975328        -0.570868
 H         1.586429         1.971739         1.055332
 H         4.163325         0.832671         1.712874
 H         5.153929        -0.643187         0.178587
 H         3.897370         0.648338        -1.709609
 H         3.928474        -1.209480        -1.906751
 H         2.022976        -1.091802         2.272027
