19
Iteration:  3304charge 0 multiplicity 1
 C         0.018253        -0.147114        -0.021628
 C         1.498671         0.000557        -0.031606
 C         2.294703         1.341422         0.328037
 C         3.292749         0.451331         1.066052
 C         4.136358        -0.426972         0.072869
 C         3.453461        -0.368955        -1.266944
 O         2.029602        -0.403897        -1.303884
 O         3.248441        -1.710685         0.563745
 C         2.417498        -0.757805         1.141093
 H        -0.343804        -0.569059         1.007437
 H        -0.432764         0.940075        -0.242629
 H        -0.239989        -0.954405        -0.634176
 H         2.545118         1.991279        -0.468451
 H         1.673600         1.853913         1.038088
 H         3.902846         0.793500         1.913863
 H         5.170175        -0.423573         0.263678
 H         3.899433         0.460107        -1.783181
 H         3.687461        -1.240278        -1.914139
 H         1.810088        -1.048117         2.008765
