19
Iteration:  1877
 C         0.036974         0.025811        -0.016235
 C         1.520462        -0.054691        -0.079976
 C         2.190676         1.299600         0.360084
 C         3.282894         0.497216         1.117987
 C         3.999405        -0.513165         0.047509
 C         3.552118        -0.337014        -1.309821
 O         2.001331        -0.539245        -1.361205
 O         3.383912        -1.644247         0.626586
 C         2.384237        -0.776686         1.151890
 H        -0.442880         0.099936         1.114868
 H        -0.283109         0.983878        -0.463298
 H        -0.442477        -0.835793        -0.531103
 H         2.592394         1.896919        -0.489577
 H         1.580568         1.862832         1.000336
 H         3.882384         0.736850         1.985722
 H         5.152104        -0.597170         0.228127
 H         3.911556         0.702665        -1.532575
 H         3.897389        -1.259919        -1.952451
 H         1.849564        -1.272105         1.937443
