19
Iteration:  2009
 C         0.048079        -0.015225        -0.073865
 C         1.575403        -0.005235        -0.002093
 C         2.209259         1.320631         0.461583
 C         3.308370         0.404649         1.106261
 C         4.081962        -0.510360         0.025527
 C         3.544793        -0.317101        -1.391136
 O         1.916507        -0.490993        -1.296241
 O         3.394338        -1.667278         0.614563
 C         2.333842        -0.763576         1.117918
 H        -0.433712         0.325002         0.962403
 H        -0.268037         0.548675        -0.905465
 H        -0.382235        -1.014691        -0.271490
 H         2.363206         2.117106        -0.330440
 H         1.692900         1.822129         1.219771
 H         3.826584         0.772085         1.952234
 H         5.148057        -0.831745         0.272305
 H         3.682401         0.600894        -1.957676
 H         3.870114        -1.079392        -2.125438
 H         1.771179        -1.017147         1.965560
