19
Iteration:   423charge 0 multiplicity 1
 C         0.082972        -0.058475        -0.220448
 C         1.499716         0.042703         0.009247
 C         2.150969         1.324766         0.548906
 C         3.339005         0.465016         1.009583
 C         4.051645        -0.544444         0.055189
 C         3.419686        -0.321480        -1.394699
 O         1.988809        -0.473187        -1.250997
 O         3.357039        -1.721761         0.593394
 C         2.486344        -0.723241         1.226381
 H        -0.604896         0.153202         0.608666
 H        -0.194250         0.547289        -1.116211
 H        -0.069603        -1.180192        -0.481554
 H         2.266167         2.178606        -0.224765
 H         1.703129         1.769976         1.393975
 H         3.812721         0.806562         1.987318
 H         5.100545        -0.663589         0.060946
 H         3.656657         0.659351        -1.823707
 H         3.720501        -1.200905        -2.130891
 H         2.174331        -1.091971         2.245433
