19
Iteration:  2145
 C        -0.073844        -0.094621        -0.123960
 C         1.509311         0.016633        -0.072232
 C         2.275032         1.301885         0.522821
 C         3.448311         0.413662         1.062693
 C         4.032746        -0.536576         0.025685
 C         3.439849        -0.313227        -1.363652
 O         1.966205        -0.400304        -1.293835
 O         3.390673        -1.692159         0.681433
 C         2.396247        -0.737149         1.120152
 H        -0.548761         0.586379         0.545628
 H        -0.333047         0.085239        -1.300096
 H        -0.475811        -1.144683        -0.090747
 H         2.508475         2.006157        -0.218805
 H         1.757060         2.002861         1.225534
 H         4.230972         0.488009         1.973698
 H         5.085301        -0.588917        -0.022541
 H         3.804790         0.727567        -1.730695
 H         3.655464        -1.256350        -1.888408
 H         1.737773        -0.955144         2.054698
