19
Iteration:  2951charge 0 multiplicity 1
 C         0.063946        -0.188689        -0.048202
 C         1.551307         0.059591        -0.026356
 C         2.259614         1.318095         0.454741
 C         3.336910         0.455051         1.077503
 C         4.014059        -0.529273         0.025022
 C         3.483240        -0.324567        -1.420209
 O         2.064820        -0.418432        -1.329365
 O         3.240138        -1.653243         0.582454
 C         2.343250        -0.751040         1.229020
 H        -0.273375        -0.118787         0.945763
 H        -0.407086         0.688875        -0.516079
 H        -0.199184        -1.181690        -0.368662
 H         2.650459         1.999989        -0.341676
 H         1.593857         1.911958         1.088716
 H         4.016801         0.750992         1.890966
 H         5.094088        -0.659840         0.292434
 H         3.811322         0.624575        -1.718923
 H         3.982943        -1.093490        -2.046471
 H         1.682539        -1.165107         2.027251
