19
Iteration:  4560
 C        -0.034844        -0.053642        -0.010503
 C         1.479832         0.032110        -0.055417
 C         2.226237         1.352437         0.480088
 C         3.372611         0.372645         1.102483
 C         4.092367        -0.514404         0.036152
 C         3.437910        -0.325977        -1.318587
 O         1.972359        -0.436666        -1.370662
 O         3.430929        -1.701214         0.576553
 C         2.372350        -0.763125         1.118687
 H        -0.436463        -0.210638        -1.020572
 H        -0.194236        -1.127443         0.311713
 H        -0.600009         0.802848         0.654890
 H         2.594062         2.159777        -0.183386
 H         1.811744         1.897341         1.306840
 H         4.060689         0.695305         1.938715
 H         5.173310        -0.708796        -0.017018
 H         3.775765         0.710279        -1.593165
 H         3.778850        -0.985342        -2.041025
 H         1.689266        -1.150363         1.914059
