19
Iteration:  4535charge 0 multiplicity 1
 C        -0.028426         0.058850         0.040576
 C         1.516604        -0.089828         0.023419
 C         2.176063         1.227063         0.348893
 C         3.246225         0.369736         1.070532
 C         4.025261        -0.485396         0.009202
 C         3.448741        -0.221583        -1.386046
 O         2.068166        -0.412360        -1.299548
 O         3.445772        -1.696185         0.614810
 C         2.419931        -0.856255         1.120247
 H        -0.339956         0.148301        -1.072183
 H        -0.605669        -0.725873         0.464245
 H        -0.194859         1.020131         0.586443
 H         2.644701         1.957247        -0.273074
 H         1.749724         1.762304         1.170437
 H         3.737373         0.706037         1.915357
 H         5.110456        -0.575165         0.046744
 H         3.790955         0.741995        -1.699039
 H         3.790246        -0.980614        -2.096702
 H         1.906482        -1.275745         1.995103
