19
Iteration:  3663charge 0 multiplicity 1
 C         0.035992        -0.002537        -0.010053
 C         1.581392        -0.023311        -0.050893
 C         2.244895         1.277873         0.338463
 C         3.242906         0.434419         1.097109
 C         4.029985        -0.486224         0.067378
 C         3.399019        -0.365729        -1.359093
 O         2.057260        -0.522796        -1.254431
 O         3.430767        -1.642155         0.669460
 C         2.333630        -0.774264         1.010511
 H        -0.289112        -0.191875         1.090954
 H        -0.304685         1.123235        -0.185784
 H        -0.451184        -0.633042        -0.699424
 H         2.634123         2.108712        -0.317679
 H         1.722609         1.896291         1.218489
 H         3.822356         0.835932         1.966023
 H         5.150389        -0.477307         0.003094
 H         3.611745         0.552906        -1.798786
 H         3.771677        -1.226054        -2.042279
 H         1.577111        -1.001697         1.808710
