19
Iteration:   622charge 0 multiplicity 1
 C        -0.012358        -0.184431         0.086270
 C         1.516503         0.055878        -0.122624
 C         2.228894         1.308028         0.337071
 C         3.340754         0.420093         1.118832
 C         4.045290        -0.588528         0.099395
 C         3.520770        -0.311883        -1.336788
 O         2.075339        -0.320238        -1.388728
 O         3.357491        -1.681481         0.623375
 C         2.281607        -0.722647         1.120804
 H        -0.394353         0.212996         1.066585
 H        -0.630220         0.201879        -0.731828
 H        -0.152449        -1.261536         0.083822
 H         2.420979         2.038758        -0.398439
 H         1.646120         1.860918         1.044925
 H         3.838491         0.701566         2.019599
 H         5.128946        -0.688507         0.209511
 H         3.968806         0.582814        -1.877725
 H         3.900685        -1.147876        -1.959187
 H         1.755003        -1.107361         1.952448
