19
Iteration:  4544
 C        -0.111638        -0.006319         0.015294
 C         1.519855        -0.029186        -0.034041
 C         2.290379         1.291514         0.432088
 C         3.291997         0.443785         1.042307
 C         4.011464        -0.509283         0.039758
 C         3.470972        -0.213819        -1.373505
 O         2.040982        -0.425498        -1.301685
 O         3.457455        -1.776150         0.656639
 C         2.407016        -0.865905         1.060411
 H        -0.721327         0.230328        -0.888603
 H        -0.703086        -0.773224         0.502776
 H        -0.300884         0.889881         0.450876
 H         2.547000         2.083279        -0.322609
 H         1.613925         1.809009         1.197348
 H         3.822871         0.697831         1.935336
 H         5.103065        -0.383454         0.066334
 H         3.668621         0.747154        -1.819785
 H         3.866761        -0.997273        -2.152466
 H         2.037169        -1.336368         1.968496
