19
Iteration:  2440charge 0 multiplicity 1
 C         0.094190        -0.018031         0.001179
 C         1.600374         0.027083        -0.117879
 C         2.227792         1.291989         0.392553
 C         3.307446         0.441047         1.059727
 C         3.997819        -0.463725         0.068294
 C         3.465752        -0.368140        -1.317191
 O         2.049037        -0.481652        -1.286052
 O         3.301509        -1.669409         0.623044
 C         2.340733        -0.775671         1.099929
 H        -0.228193         0.129470         0.990013
 H        -0.310006         0.872281        -0.604497
 H        -0.158401        -0.994736        -0.344029
 H         2.411116         2.035652        -0.420645
 H         1.418772         1.452452         1.125749
 H         3.966102         0.629689         1.989252
 H         5.047573        -0.542855         0.071426
 H         3.583634         0.571152        -1.807230
 H         3.843041        -1.189779        -1.879953
 H         1.872190        -1.082360         2.051491
