19
Iteration:  2052
 C         0.049887         0.007145        -0.117742
 C         1.505347        -0.049084         0.039569
 C         2.180408         1.248520         0.468224
 C         3.363436         0.461309         1.063919
 C         4.064346        -0.511512         0.022963
 C         3.449587        -0.358146        -1.432790
 O         1.975995        -0.409056        -1.300458
 O         3.363679        -1.701885         0.666551
 C         2.406938        -0.751189         1.206567
 H        -0.597404        -0.237104         0.799596
 H        -0.150994         0.873773        -0.619586
 H        -0.190045        -0.673059        -0.926700
 H         2.446502         2.053082        -0.304539
 H         1.557150         1.844696         1.101624
 H         3.952700         0.845665         1.843388
 H         5.219749        -0.496300         0.000030
 H         3.881204         0.632106        -2.008463
 H         3.662003        -1.332449        -1.993641
 H         2.006228        -1.223491         2.054107
