19
Iteration:   184
 C         0.071535        -0.107486        -0.127392
 C         1.516713         0.008632         0.090321
 C         2.110997         1.373321         0.530506
 C         3.296243         0.496238         0.990192
 C         4.002081        -0.536986        -0.044090
 C         3.465936        -0.418259        -1.387733
 O         2.061072        -0.365074        -1.295482
 O         3.381973        -1.750860         0.675214
 C         2.426150        -0.720746         1.156621
 H        -0.548773        -0.220898         0.727224
 H        -0.366232         0.586442        -0.824932
 H         0.023943        -1.130074        -0.769410
 H         2.360089         2.103656        -0.355613
 H         1.589446         1.950715         1.436617
 H         4.041927         0.890386         1.722080
 H         5.122529        -0.662746        -0.037166
 H         3.940516         0.556020        -1.801663
 H         3.629275        -1.351718        -1.965761
 H         1.906153        -0.923672         2.101833
