19
Iteration:  3073
 C         0.045911        -0.071850        -0.026754
 C         1.570138        -0.043232        -0.005153
 C         2.231688         1.285332         0.359873
 C         3.274921         0.481376         1.127442
 C         4.070954        -0.578688         0.081065
 C         3.489276        -0.260618        -1.323727
 O         1.974006        -0.448421        -1.334757
 O         3.334851        -1.673224         0.591299
 C         2.381256        -0.763850         1.109382
 H        -0.323887         0.153799         0.937015
 H        -0.117550         0.901314        -0.653762
 H        -0.303365        -0.983570        -0.428807
 H         2.486774         1.845102        -0.569829
 H         1.523794         1.869882         0.988570
 H         3.806484         0.948671         2.050557
 H         5.195312        -0.681368         0.113597
 H         3.823522         0.725072        -1.662628
 H         3.743547        -1.147222        -1.991517
 H         1.915019        -1.191869         2.050567
