19
Iteration:  4202charge 0 multiplicity 1
 C         0.074352        -0.022484         0.007275
 C         1.556482        -0.100929        -0.050976
 C         2.223724         1.254031         0.435138
 C         3.314846         0.460601         1.070570
 C         4.029468        -0.512576         0.045636
 C         3.427395        -0.300599        -1.352003
 O         1.968566        -0.350790        -1.387381
 O         3.413571        -1.750351         0.671525
 C         2.372511        -0.734453         1.128588
 H        -0.199767         0.826134        -0.568443
 H        -0.299198        -0.922216        -0.473455
 H        -0.322086        -0.072639         1.068619
 H         2.419887         1.892885        -0.352297
 H         1.585136         1.787537         1.114217
 H         3.760952         0.790863         2.005899
 H         5.105028        -0.536414        -0.053791
 H         3.934716         0.583495        -1.903214
 H         3.698608        -1.256894        -1.942619
 H         1.682053        -0.920281         1.952324
