19
Iteration:  2974charge 0 multiplicity 1
 C         0.021108        -0.251153         0.016374
 C         1.538522         0.089400        -0.029244
 C         2.246994         1.395718         0.435748
 C         3.380338         0.468523         1.035930
 C         4.025516        -0.556541         0.060180
 C         3.530375        -0.363863        -1.316319
 O         2.014451        -0.314965        -1.322736
 O         3.281315        -1.735029         0.611231
 C         2.336312        -0.704515         1.027094
 H        -0.485960        -0.018551         0.889440
 H        -0.481955         0.342798        -0.805444
 H         0.025548        -1.290288        -0.086100
 H         2.578013         2.235523        -0.225236
 H         1.612392         1.849185         1.229675
 H         3.870793         0.508712         2.026802
 H         5.148339        -0.827501         0.098952
 H         3.931588         0.503081        -1.776516
 H         3.901502        -1.321087        -1.812555
 H         1.678182        -1.026154         1.888191
