19
Iteration:  1498charge 0 multiplicity 1
 C         0.015115        -0.197229         0.014440
 C         1.562131         0.009266        -0.007160
 C         2.290824         1.366130         0.356042
 C         3.342926         0.418498         1.100416
 C         4.066156        -0.470390         0.057643
 C         3.556744        -0.406152        -1.429926
 O         2.052605        -0.375156        -1.323152
 O         3.200657        -1.676977         0.644497
 C         2.312442        -0.693205         1.133704
 H        -0.318239         0.060537         1.117353
 H        -0.562533         0.416613        -0.694846
 H        -0.123104        -1.277241        -0.216166
 H         2.607666         1.988938        -0.437627
 H         1.599104         1.876186         1.052554
 H         3.938105         0.726856         1.940776
 H         5.113819        -0.563134         0.203180
 H         3.848149         0.507605        -1.867934
 H         3.983563        -1.168791        -2.056100
 H         1.566162        -0.974327         1.919440
