19
Iteration:  1605charge 0 multiplicity 1
 C         0.019166        -0.076731         0.018149
 C         1.505924        -0.004536        -0.053560
 C         2.272516         1.281123         0.350189
 C         3.285312         0.426230         1.129126
 C         4.012339        -0.495848         0.080500
 C         3.545053        -0.286335        -1.347746
 O         2.108827        -0.502426        -1.375031
 O         3.214759        -1.655856         0.601680
 C         2.410965        -0.724206         1.174017
 H        -0.487331         0.342098         0.974233
 H        -0.371029         0.334151        -0.859595
 H        -0.412966        -1.085242         0.116355
 H         2.576826         1.929148        -0.551653
 H         1.563296         1.901122         0.856132
 H         3.994448         0.733861         1.856504
 H         5.093761        -0.546675         0.197624
 H         3.708892         0.692990        -1.734534
 H         4.048370        -1.006821        -1.931697
 H         1.954907        -1.121999         2.044723
