19
Iteration:  3141
 C         0.072311        -0.178955        -0.107668
 C         1.489323         0.053199         0.049715
 C         2.199804         1.372854         0.461082
 C         3.297379         0.456065         1.054957
 C         3.970160        -0.520277         0.002755
 C         3.526114        -0.418231        -1.433941
 O         2.070070        -0.350565        -1.281988
 O         3.299624        -1.688595         0.639605
 C         2.403883        -0.738227         1.188820
 H        -0.569562        -0.361084         0.772650
 H        -0.416673         0.644831        -0.600362
 H        -0.018931        -1.090647        -0.641564
 H         2.619999         2.070362        -0.286928
 H         1.799703         2.030056         1.291622
 H         4.068318         0.857112         1.720225
 H         5.104223        -0.713145         0.146543
 H         3.905872         0.386197        -2.111081
 H         3.657982        -1.431149        -1.925164
 H         1.886246        -0.999383         2.131372
