19
Iteration:  2176charge 0 multiplicity 1
 C         0.012119         0.031136        -0.080468
 C         1.556784         0.045863        -0.047226
 C         2.161214         1.276051         0.450225
 C         3.361183         0.496189         1.071469
 C         3.993174        -0.500024         0.049713
 C         3.485673        -0.381736        -1.361169
 O         1.974990        -0.430665        -1.263594
 O         3.364003        -1.697728         0.591435
 C         2.449045        -0.875466         1.204938
 H        -0.569058         0.495775         0.652611
 H        -0.170726         0.464201        -1.121758
 H        -0.242234        -1.046250        -0.196636
 H         2.312107         2.022334        -0.321393
 H         1.522576         1.816134         1.173146
 H         4.233564         0.811036         1.792372
 H         5.072628        -0.504134         0.101079
 H         3.989049         0.408499        -1.948752
 H         3.811381        -1.154420        -2.048340
 H         1.847653        -1.285122         2.032535
