19
Iteration:  2144charge 0 multiplicity 1
 C        -0.073463        -0.094471        -0.125006
 C         1.503117         0.019811        -0.062032
 C         2.278493         1.302178         0.515918
 C         3.454108         0.420721         1.066545
 C         4.029713        -0.535001         0.022868
 C         3.453107        -0.316801        -1.365265
 O         1.963778        -0.399870        -1.300110
 O         3.383322        -1.696292         0.680981
 C         2.393651        -0.736972         1.117282
 H        -0.556049         0.568723         0.546926
 H        -0.354667         0.087977        -1.271230
 H        -0.449586        -1.157681        -0.063192
 H         2.520566         2.011073        -0.215766
 H         1.737309         1.969047         1.224312
 H         4.222208         0.514494         1.981596
 H         5.088905        -0.584944        -0.015009
 H         3.794633         0.737254        -1.696589
 H         3.661741        -1.252466        -1.870841
 H         1.780400        -0.989169         2.049122
