19
Iteration:   471
 C         0.118779        -0.166512         0.122072
 C         1.588984         0.026990        -0.103613
 C         2.253304         1.353366         0.326851
 C         3.221144         0.420591         1.091380
 C         4.005904        -0.448181         0.062856
 C         3.544044        -0.350789        -1.284110
 O         2.014554        -0.356391        -1.361824
 O         3.277997        -1.756673         0.580809
 C         2.336861        -0.765657         1.092002
 H        -0.297197         0.352066         1.063399
 H        -0.424827         0.216234        -0.774061
 H        -0.127693        -1.222347         0.007948
 H         2.753906         1.920368        -0.398077
 H         1.518769         1.820249         1.087670
 H         3.775739         0.727428         1.950047
 H         5.139827        -0.374366         0.164487
 H         3.956704         0.804902        -1.324268
 H         3.915084        -1.117469        -2.057671
 H         1.740045        -1.077742         1.885476
