19
Iteration:   518
 C        -0.002960        -0.072038        -0.107753
 C         1.518543        -0.039247         0.013826
 C         2.203339         1.355919         0.456815
 C         3.347771         0.460562         1.018406
 C         3.975078        -0.490324         0.038658
 C         3.476588        -0.354157        -1.309903
 O         2.044636        -0.402185        -1.290445
 O         3.412604        -1.742065         0.603738
 C         2.369126        -0.767255         1.113082
 H        -0.405915        -0.024075         0.884910
 H        -0.395570         0.782400        -0.667994
 H        -0.400643        -0.963382        -0.623186
 H         2.341628         2.074216        -0.386149
 H         1.682264         1.723373         1.381928
 H         4.040775         0.801299         1.872963
 H         5.099830        -0.517244         0.105903
 H         3.840335         0.709040        -1.781361
 H         3.845049        -1.220864        -1.754136
 H         1.851620        -1.102241         2.079690
