19
Iteration:  2540charge 0 multiplicity 1
 C         0.059627        -0.162685        -0.038799
 C         1.537089         0.004213         0.021747
 C         2.201803         1.393592         0.462573
 C         3.355016         0.458262         0.979136
 C         3.997936        -0.529711         0.085298
 C         3.530340        -0.462848        -1.368096
 O         2.077118        -0.306968        -1.315484
 O         3.263488        -1.689633         0.613729
 C         2.367795        -0.721994         1.107754
 H        -0.337867         0.044256         1.010647
 H        -0.442123         0.512302        -0.820485
 H        -0.180145        -1.162295        -0.450224
 H         2.407548         2.256898        -0.225400
 H         1.645359         1.687785         1.444101
 H         4.115373         0.733581         1.812813
 H         5.056518        -0.649872         0.155494
 H         3.881594         0.402592        -1.911556
 H         3.581845        -1.418839        -1.883237
 H         1.690805        -1.121633         1.903719
