19
Iteration:  3274
 C         0.028924        -0.234742        -0.084536
 C         1.531387         0.038084        -0.027599
 C         2.260355         1.427304         0.499056
 C         3.311353         0.518611         1.006128
 C         3.987377        -0.604605        -0.014057
 C         3.489333        -0.423463        -1.378805
 O         2.066993        -0.339151        -1.361659
 O         3.273756        -1.686474         0.696163
 C         2.403786        -0.736475         1.220400
 H        -0.264069        -0.404052         0.979233
 H        -0.492927         0.541863        -0.486177
 H        -0.087445        -1.098862        -0.710953
 H         2.482917         2.290434        -0.148758
 H         1.624935         1.795524         1.347412
 H         4.082206         0.912303         1.601916
 H         5.109442        -0.676686         0.181797
 H         3.988086         0.518963        -1.804563
 H         3.617228        -1.131978        -2.209867
 H         1.798233        -1.072134         2.056172
