19
Iteration:  4858
 C         0.042212         0.028030        -0.059923
 C         1.556261         0.024237        -0.034277
 C         2.215967         1.264054         0.504578
 C         3.341911         0.439400         1.062318
 C         4.002643        -0.477815         0.005739
 C         3.453368        -0.351870        -1.401080
 O         2.010805        -0.474964        -1.257280
 O         3.421002        -1.686349         0.599712
 C         2.329413        -0.788925         1.140321
 H        -0.308145         0.900673        -0.699637
 H        -0.377565        -0.909528        -0.554834
 H        -0.395205        -0.078983         0.917340
 H         2.471293         2.014385        -0.213442
 H         1.586976         1.584020         1.309111
 H         4.003510         0.584582         1.915008
 H         5.087539        -0.362288         0.042818
 H         3.682523         0.710345        -1.872018
 H         3.896562        -1.126824        -1.951769
 H         1.608658        -1.303140         1.822472
