19
Iteration:   797charge 0 multiplicity 1
 C         0.066559        -0.183351        -0.215033
 C         1.554863        -0.037387        -0.023555
 C         2.240808         1.376400         0.492386
 C         3.316570         0.512855         1.033088
 C         3.969158        -0.601914        -0.006456
 C         3.419078        -0.354470        -1.410664
 O         1.999871        -0.403936        -1.256060
 O         3.363220        -1.668570         0.720992
 C         2.430812        -0.696608         1.207425
 H        -0.541024         0.387987         0.569582
 H        -0.171263         0.402630        -1.104660
 H        -0.196408        -1.229678        -0.492866
 H         2.451316         2.281898        -0.220383
 H         1.596802         1.686059         1.408819
 H         4.014916         0.828284         1.890731
 H         5.117698        -0.735738         0.008085
 H         3.765171         0.503019        -1.884355
 H         3.673138        -1.211586        -1.963355
 H         1.968401        -0.860509         2.232999
