19
Iteration:  4895
 C         0.047383        -0.243151         0.020469
 C         1.551577        -0.026605         0.049777
 C         2.286600         1.287790         0.419570
 C         3.363690         0.413415         1.032691
 C         3.982517        -0.570274         0.014435
 C         3.531230        -0.296161        -1.354458
 O         2.045466        -0.220853        -1.339486
 O         3.273256        -1.712661         0.614856
 C         2.314592        -0.706722         1.129797
 H        -0.582254         0.322369        -0.828803
 H        -0.089728        -1.330467        -0.028288
 H        -0.438297         0.275746         0.895975
 H         2.413268         1.964490        -0.443604
 H         1.740194         1.956155         1.119846
 H         4.025898         0.811169         1.828915
 H         5.069136        -0.731317         0.104258
 H         4.061570         0.624907        -1.752627
 H         3.620833        -1.145348        -2.117510
 H         1.612214        -1.027982         1.874079
