19
Iteration:  4100charge 0 multiplicity 1
 C         0.023783         0.000282        -0.007164
 C         1.453146         0.025168        -0.071875
 C         2.211017         1.227322         0.460390
 C         3.339279         0.400143         1.086116
 C         4.063965        -0.521662         0.061697
 C         3.463744        -0.339673        -1.316236
 O         2.000829        -0.429171        -1.317975
 O         3.491452        -1.659985         0.630898
 C         2.309950        -0.799609         1.014100
 H        -0.400170         0.523673        -0.895028
 H        -0.428812        -0.962053         0.109784
 H        -0.198989         0.629011         0.831902
 H         2.348961         2.084939        -0.237877
 H         1.576144         1.544755         1.297765
 H         3.789977         0.983637         1.928459
 H         5.125508        -0.627838        -0.146721
 H         3.735951         0.737047        -1.734281
 H         3.895963        -1.123583        -1.957890
 H         1.767957        -1.192218         1.875907
