19
Iteration:   684charge 0 multiplicity 1
 C        -0.040977        -0.052295        -0.209697
 C         1.512933        -0.068620         0.035220
 C         2.215371         1.366714         0.443150
 C         3.349958         0.488934         1.048869
 C         4.070420        -0.477464         0.080277
 C         3.451077        -0.354357        -1.354749
 O         2.014664        -0.481323        -1.219604
 O         3.424316        -1.749273         0.602350
 C         2.385386        -0.721351         1.169020
 H        -0.594861         0.154869         0.675062
 H        -0.183628         0.834050        -0.814637
 H        -0.393951        -0.919539        -0.726066
 H         2.337752         2.163341        -0.412563
 H         1.656283         1.709164         1.294774
 H         3.983784         0.852865         1.813436
 H         5.111874        -0.545119         0.065576
 H         3.634650         0.588248        -1.816669
 H         3.710210        -1.123714        -2.043035
 H         1.851690        -1.130866         2.105784
