19
Iteration:  2155charge 0 multiplicity 1
 C        -0.013488        -0.078249        -0.171167
 C         1.526042        -0.023630        -0.007872
 C         2.260855         1.353426         0.527241
 C         3.315033         0.354490         1.043008
 C         4.054490        -0.541124         0.010548
 C         3.336933        -0.342342        -1.357515
 O         2.014481        -0.391722        -1.276985
 O         3.456621        -1.681883         0.678792
 C         2.398619        -0.733328         1.152959
 H        -0.495008         0.648517         0.423402
 H        -0.141351         0.418084        -1.246561
 H        -0.550231        -1.052655        -0.008627
 H         2.528230         1.931174        -0.288713
 H         1.836610         1.903675         1.404396
 H         4.031906         0.646391         1.983346
 H         5.097074        -0.670875        -0.074309
 H         3.716804         0.493886        -2.062820
 H         3.678496        -1.036208        -2.132582
 H         1.684066        -0.899001         2.019031
