19
Iteration:  3059charge 0 multiplicity 1
 C         0.072848         0.028738        -0.068637
 C         1.551377        -0.029413        -0.005390
 C         2.236054         1.268228         0.403579
 C         3.345761         0.437937         1.084261
 C         3.989422        -0.384035         0.076714
 C         3.447912        -0.312038        -1.317552
 O         2.027533        -0.525386        -1.300589
 O         3.338311        -1.723775         0.562050
 C         2.353809        -0.793160         1.151925
 H        -0.356994         0.324456         0.878045
 H        -0.435493         0.457682        -0.955942
 H        -0.241826        -1.068032        -0.269916
 H         2.576842         1.944718        -0.382705
 H         1.783389         1.842631         1.175668
 H         3.913349         0.743073         1.976087
 H         5.010514        -0.466988         0.078484
 H         3.620176         0.779476        -1.808881
 H         4.045025        -0.965517        -1.951517
 H         1.727966        -1.126943         1.983303
