19
Iteration:   704charge 0 multiplicity 1
 C         0.055534         0.030851        -0.018112
 C         1.514489         0.018477        -0.086071
 C         2.190390         1.288065         0.379922
 C         3.233269         0.443190         1.068429
 C         4.035512        -0.482544         0.031310
 C         3.486748        -0.327159        -1.322598
 O         2.039282        -0.497184        -1.304179
 O         3.433650        -1.656880         0.691320
 C         2.347559        -0.845443         1.088977
 H        -0.238478         0.034721         1.027662
 H        -0.413000         0.882782        -0.600915
 H        -0.252514        -0.953673        -0.463343
 H         2.536120         1.876600        -0.503612
 H         1.568203         1.869317         1.066794
 H         3.745896         0.763735         1.984776
 H         5.131259        -0.471125         0.058461
 H         3.780168         0.629165        -1.650120
 H         3.829702        -1.260472        -1.994952
 H         1.848744        -1.333799         1.984079
