19
Iteration:  1961charge 0 multiplicity 1
 C         0.042039        -0.225086         0.070211
 C         1.503099         0.038123         0.029063
 C         2.258189         1.345716         0.377618
 C         3.313879         0.439753         1.049203
 C         4.096606        -0.624337         0.068807
 C         3.514682        -0.398394        -1.328338
 O         2.092866        -0.328823        -1.363205
 O         3.267548        -1.621903         0.599063
 C         2.282300        -0.697105         1.047763
 H        -0.304767         0.230398         0.912821
 H        -0.459610         0.132007        -0.866311
 H        -0.244341        -1.258804         0.169098
 H         2.538287         2.050817        -0.402026
 H         1.732100         2.047406         1.174713
 H         3.762085         0.674997         2.031952
 H         5.155561        -0.741580         0.289572
 H         3.929691         0.599284        -1.776418
 H         3.700275        -0.909728        -2.271231
 H         1.757703        -1.074712         1.992855
