19
Iteration:  3709charge 0 multiplicity 1
 C         0.057972        -0.245787        -0.071539
 C         1.529039         0.025336        -0.005760
 C         2.255053         1.333940         0.422112
 C         3.421185         0.496286         0.951388
 C         4.051737        -0.591905        -0.002615
 C         3.490483        -0.378757        -1.366779
 O         2.055084        -0.321602        -1.222118
 O         3.205584        -1.681475         0.694020
 C         2.321391        -0.653033         1.127191
 H        -0.310952        -0.491486         0.974940
 H        -0.609410         0.625529        -0.407141
 H        -0.152071        -1.110207        -0.796366
 H         2.311075         1.997740        -0.511070
 H         1.740236         2.018397         1.239972
 H         4.133917         0.715127         1.750847
 H         5.136965        -0.772276        -0.039480
 H         3.900627         0.504478        -1.749127
 H         3.750982        -1.309498        -1.978631
 H         1.865859        -0.876630         2.126391
