19
Iteration:  3215charge 0 multiplicity 1
 C         0.016417        -0.040006        -0.021860
 C         1.548956         0.011829        -0.046256
 C         2.243230         1.317613         0.430857
 C         3.278475         0.480759         1.086635
 C         4.065190        -0.457048         0.084030
 C         3.481811        -0.289750        -1.318739
 O         2.058516        -0.497282        -1.304342
 O         3.350902        -1.721159         0.546519
 C         2.382754        -0.800782         1.111316
 H        -0.579320         0.644922         0.612380
 H        -0.605864         0.258714        -1.042106
 H        -0.394832        -0.993227         0.285065
 H         2.588847         1.868676        -0.421217
 H         1.557425         1.890690         1.002069
 H         3.880289         0.611685         2.061883
 H         5.107994        -0.446056         0.132001
 H         3.648336         0.597369        -1.960506
 H         3.720609        -1.345804        -1.654633
 H         1.793659        -1.185801         2.000909
