19
Iteration:   346
 C         0.126818        -0.174463         0.063237
 C         1.557406        -0.008242        -0.031425
 C         2.250348         1.351378         0.347941
 C         3.278134         0.401814         1.057290
 C         4.013186        -0.509018         0.075529
 C         3.539684        -0.246945        -1.370410
 O         2.053808        -0.435210        -1.347132
 O         3.279265        -1.693341         0.628640
 C         2.253443        -0.701223         1.117117
 H        -0.149910        -0.086881         1.117047
 H        -0.461968         0.592108        -0.483140
 H        -0.213320        -1.289016        -0.125678
 H         2.425565         2.001643        -0.575127
 H         1.676949         1.901486         1.056175
 H         3.897284         0.790491         1.967419
 H         5.072071        -0.701902         0.079714
 H         3.905626         0.767934        -1.789404
 H         4.017315        -1.100319        -2.105566
 H         1.733364        -1.098639         2.044952
