19
Iteration:  1549
 C         0.007363        -0.036736        -0.194494
 C         1.502926        -0.084066         0.012062
 C         2.255161         1.267191         0.524292
 C         3.301821         0.488802         1.071405
 C         4.018116        -0.581387        -0.017173
 C         3.434929        -0.424471        -1.458436
 O         2.014562        -0.369332        -1.354930
 O         3.424571        -1.604582         0.780607
 C         2.368062        -0.731373         1.211032
 H        -0.393051        -0.019895         0.863395
 H        -0.379178         0.870671        -0.580769
 H        -0.262887        -0.904176        -0.833073
 H         2.412783         2.094704        -0.272725
 H         1.647584         1.682791         1.308791
 H         4.028770         0.896739         1.764338
 H         5.122842        -0.732520        -0.118314
 H         3.875317         0.514322        -2.103431
 H         3.846154        -1.371107        -1.862993
 H         1.877829        -1.143216         2.050532
