19
Iteration:  1083
 C         0.059860        -0.207094         0.060968
 C         1.539381         0.041222        -0.093758
 C         2.231992         1.407315         0.360028
 C         3.278718         0.459831         1.059924
 C         4.057370        -0.563170         0.116988
 C         3.465734        -0.373649        -1.288900
 O         2.111593        -0.349476        -1.343787
 O         3.302852        -1.731762         0.602296
 C         2.293114        -0.698673         1.077592
 H        -0.330466         0.255943         0.987436
 H        -0.613681         0.213689        -0.770800
 H        -0.031067        -1.312972         0.020331
 H         2.577466         2.124536        -0.339701
 H         1.572420         1.919130         1.040404
 H         3.872671         0.798697         1.880245
 H         5.136109        -0.527098         0.157538
 H         3.992180         0.416351        -1.911069
 H         3.797467        -1.217664        -1.904270
 H         1.744613        -1.078477         1.991406
