19
Iteration:  1145
 C        -0.010947        -0.005081        -0.207947
 C         1.500313        -0.013584         0.047031
 C         2.190498         1.287663         0.462669
 C         3.367742         0.515765         1.041694
 C         4.078685        -0.531677         0.128457
 C         3.433562        -0.390471        -1.323519
 O         1.971207        -0.444750        -1.280858
 O         3.466015        -1.705632         0.617452
 C         2.373692        -0.782650         1.106504
 H        -0.654452         0.295227         0.747554
 H        -0.282410         0.692370        -0.941851
 H        -0.254740        -0.995872        -0.597291
 H         2.471212         1.920894        -0.516648
 H         1.655779         1.799566         1.256911
 H         4.026524         1.149467         1.788428
 H         5.166715        -0.531204         0.169006
 H         3.708187         0.591389        -1.709954
 H         3.613276        -1.292750        -1.885223
 H         1.818191        -1.108424         2.053367
