19
Iteration:  2554
 C         0.092754        -0.123750        -0.032499
 C         1.570839        -0.007696        -0.036657
 C         2.244659         1.291457         0.426489
 C         3.306583         0.445653         1.076276
 C         4.012887        -0.506561        -0.021564
 C         3.466794        -0.384911        -1.356809
 O         2.062601        -0.319075        -1.325641
 O         3.279459        -1.706714         0.640986
 C         2.306929        -0.745884         1.173018
 H        -0.438504        -0.051890         1.005780
 H        -0.236883         0.727172        -0.465013
 H        -0.338863        -1.082460        -0.446601
 H         2.510642         1.821510        -0.529170
 H         1.717219         1.977392         1.157240
 H         3.914303         0.880689         1.856245
 H         5.130482        -0.520766         0.050284
 H         3.952731         0.417731        -1.834035
 H         3.978437        -1.280002        -1.866871
 H         1.780154        -1.015903         2.091124
