19
Iteration:  3238
 C         0.001199        -0.165882        -0.095647
 C         1.530665         0.014641        -0.007991
 C         2.234021         1.327998         0.455126
 C         3.323385         0.474272         1.011639
 C         4.042943        -0.588628         0.018885
 C         3.487611        -0.406201        -1.377730
 O         2.029498        -0.316751        -1.266392
 O         3.372198        -1.636352         0.654220
 C         2.356426        -0.775768         1.175954
 H        -0.600681         0.371933         0.676957
 H        -0.302344         0.435411        -1.024464
 H        -0.423104        -1.122264        -0.144249
 H         2.511764         1.993746        -0.340019
 H         1.775158         1.873836         1.268622
 H         3.916045         0.842101         1.865839
 H         5.107488        -0.669271         0.001355
 H         3.780592         0.585030        -1.702939
 H         3.814932        -1.229568        -2.077980
 H         1.743490        -1.314118         1.917471
