19
Iteration:   587charge 0 multiplicity 1
 C         0.100260        -0.093424         0.060085
 C         1.572580         0.007067        -0.045248
 C         2.160730         1.353289         0.355590
 C         3.273900         0.434285         1.141099
 C         4.001895        -0.543841         0.113202
 C         3.490780        -0.325877        -1.336963
 O         2.082351        -0.422573        -1.341214
 O         3.375627        -1.690847         0.560309
 C         2.309876        -0.758709         1.071766
 H        -0.237809         0.272046         1.029515
 H        -0.355143         0.539291        -0.669792
 H        -0.242603        -1.087606        -0.121040
 H         2.461545         1.963283        -0.521662
 H         1.473157         1.812263         0.972271
 H         3.760619         0.620530         2.052621
 H         5.045908        -0.578725        -0.016898
 H         3.880889         0.727231        -1.774329
 H         3.737662        -1.153497        -1.887822
 H         1.694916        -1.095370         1.919600
