19
Iteration:  3323charge 0 multiplicity 1
 C         0.015190        -0.034868         0.000009
 C         1.547865        -0.013899        -0.037147
 C         2.232068         1.288322         0.374629
 C         3.316941         0.506392         1.100974
 C         3.916193        -0.524887         0.067102
 C         3.514788        -0.295672        -1.358845
 O         2.037565        -0.491552        -1.329704
 O         3.412424        -1.686319         0.604124
 C         2.349125        -0.802117         1.177108
 H        -0.302458        -0.165896         1.032530
 H        -0.262123         1.036286        -0.399962
 H        -0.349583        -0.881795        -0.650172
 H         2.563307         1.872406        -0.514138
 H         1.645754         1.976552         0.984403
 H         3.913495         0.883834         2.011659
 H         4.986562        -0.664484         0.052533
 H         3.689010         0.648976        -1.929906
 H         3.919729        -1.012883        -2.072551
 H         1.754954        -1.252036         2.015294
