19
Iteration:  3665charge 0 multiplicity 1
 C         0.031750        -0.005043        -0.006329
 C         1.576799        -0.018658        -0.059963
 C         2.237147         1.273632         0.338208
 C         3.259373         0.435173         1.087121
 C         4.022465        -0.480683         0.059254
 C         3.408882        -0.369515        -1.347642
 O         2.063391        -0.511330        -1.254698
 O         3.420520        -1.653614         0.674315
 C         2.337366        -0.778488         1.031403
 H        -0.239780        -0.204602         1.086531
 H        -0.306978         1.076657        -0.140290
 H        -0.461151        -0.640232        -0.724278
 H         2.623849         2.087184        -0.322472
 H         1.748069         1.913789         1.166440
 H         3.765663         0.857829         1.958506
 H         5.122728        -0.469982        -0.004577
 H         3.635223         0.597335        -1.856483
 H         3.772234        -1.200199        -2.082683
 H         1.579455        -0.985367         1.786960
