19
Iteration:  4079
 C        -0.004910         0.037489        -0.053748
 C         1.513672        -0.086396         0.014622
 C         2.167505         1.355308         0.460844
 C         3.279379         0.441551         1.081558
 C         4.056803        -0.409691         0.010131
 C         3.513427        -0.313169        -1.389081
 O         2.038843        -0.490264        -1.283223
 O         3.362728        -1.724638         0.561811
 C         2.431848        -0.859807         1.192164
 H        -0.239538         0.893665        -0.736723
 H        -0.465971        -0.863541        -0.422594
 H        -0.458316         0.237516         0.962196
 H         2.665080         1.943795        -0.272070
 H         1.511673         1.941390         1.072033
 H         3.937781         0.712746         1.949277
 H         5.139785        -0.366827        -0.005400
 H         3.686979         0.624094        -2.041350
 H         3.867384        -1.225606        -1.939763
 H         1.901200        -1.369080         1.985392
