19
Iteration:   687charge 0 multiplicity 1
 C        -0.027065        -0.039469        -0.179948
 C         1.523910        -0.054679         0.032926
 C         2.206183         1.372740         0.408468
 C         3.327786         0.465872         1.038707
 C         4.052426        -0.490204         0.111501
 C         3.431897        -0.345574        -1.348502
 O         2.026302        -0.482641        -1.216669
 O         3.450129        -1.749846         0.607255
 C         2.381392        -0.740106         1.153221
 H        -0.653498         0.178722         0.706704
 H        -0.225364         0.835838        -0.765007
 H        -0.374232        -0.891002        -0.718306
 H         2.335684         2.182549        -0.357537
 H         1.617513         1.700548         1.265642
 H         4.001068         0.886785         1.771512
 H         5.138697        -0.573418         0.102678
 H         3.682529         0.616418        -2.004769
 H         3.765956        -1.051121        -2.021642
 H         1.798644        -1.117313         1.986924
