19
Iteration:   222
 C         0.048513        -0.176426         0.031472
 C         1.544745        -0.020368         0.004926
 C         2.293049         1.314116         0.342940
 C         3.373000         0.479492         1.066254
 C         3.974219        -0.464640         0.067832
 C         3.481818        -0.234261        -1.302570
 O         2.059034        -0.485466        -1.365121
 O         3.226414        -1.728298         0.584825
 C         2.376944        -0.698442         1.136324
 H        -0.335450        -0.279930         1.106019
 H        -0.576963         0.597740        -0.468956
 H        -0.082230        -0.988364        -0.599689
 H         2.619726         1.807482        -0.516939
 H         1.677866         1.887708         0.975250
 H         3.863376         0.673037         2.051868
 H         5.063771        -0.452583         0.035391
 H         3.748431         0.839489        -1.660151
 H         4.025823        -1.043300        -1.863343
 H         1.781491        -0.938551         2.060551
