19
Iteration:  4411charge 0 multiplicity 1
 C         0.046764        -0.049947        -0.041069
 C         1.546948         0.031830        -0.118417
 C         2.273406         1.325919         0.530398
 C         3.302979         0.399002         1.111683
 C         3.996943        -0.464469         0.064687
 C         3.423760        -0.350361        -1.339802
 O         1.976405        -0.511377        -1.299278
 O         3.396365        -1.665648         0.529211
 C         2.426417        -0.735200         1.097511
 H        -0.462453         0.902229        -0.329692
 H        -0.476963        -0.892096        -0.646366
 H        -0.204517        -0.301117         0.991032
 H         2.356291         2.101920        -0.304596
 H         1.692829         1.862962         1.396044
 H         4.001183         0.587943         2.004931
 H         5.110765        -0.512574         0.200941
 H         3.569503         0.554032        -1.880683
 H         3.847148        -1.241486        -2.007324
 H         1.860535        -1.033491         2.036044
