19
Iteration:   474charge 0 multiplicity 1
 C         0.129788        -0.168564         0.145725
 C         1.594164         0.013566        -0.122125
 C         2.255902         1.358705         0.332984
 C         3.224953         0.433047         1.088888
 C         3.972854        -0.435873         0.077484
 C         3.555162        -0.367153        -1.286084
 O         2.018886        -0.351479        -1.365716
 O         3.282703        -1.759234         0.578232
 C         2.322885        -0.768741         1.077955
 H        -0.189707         0.349146         1.015236
 H        -0.420589         0.230338        -0.718795
 H        -0.123576        -1.214128        -0.016189
 H         2.764890         1.937448        -0.473661
 H         1.549614         1.789387         1.118094
 H         3.816745         0.745634         2.056132
 H         5.125757        -0.331667         0.067183
 H         3.966008         0.794170        -1.397088
 H         3.882632        -1.065941        -1.948112
 H         1.593757        -1.164920         1.916810
