19
Iteration:  2876charge 0 multiplicity 1
 C         0.105808        -0.023678        -0.082545
 C         1.560679        -0.091741        -0.028241
 C         2.180449         1.302353         0.472730
 C         3.320920         0.458797         1.116336
 C         4.008075        -0.472328         0.030353
 C         3.474249        -0.408660        -1.318836
 O         1.969344        -0.389728        -1.284176
 O         3.352272        -1.652314         0.584894
 C         2.370182        -0.796280         1.098309
 H        -0.306145         0.244687         0.821797
 H        -0.133934         0.690494        -0.977712
 H        -0.188535        -1.000017        -0.352217
 H         2.313184         2.083727        -0.316370
 H         1.563114         1.833050         1.218381
 H         4.058088         0.788290         1.859115
 H         5.167654        -0.540247         0.092753
 H         3.960377         0.502390        -1.886912
 H         3.853600        -1.284170        -1.890156
 H         1.781408        -1.188587         1.969271
