19
Iteration:  3083
 C        -0.005462        -0.103209         0.008737
 C         1.540103        -0.054753        -0.060761
 C         2.175314         1.345594         0.307859
 C         3.283990         0.459628         1.120524
 C         4.074199        -0.568023         0.066348
 C         3.459411        -0.344012        -1.372460
 O         2.081157        -0.367068        -1.290794
 O         3.354409        -1.682734         0.638869
 C         2.377961        -0.774819         1.150289
 H        -0.353896        -0.085816         0.998505
 H        -0.445834         0.830115        -0.589485
 H        -0.505035        -0.852114        -0.579101
 H         2.660938         2.055377        -0.365185
 H         1.696903         1.948826         1.058530
 H         4.073785         0.728667         1.913744
 H         5.137071        -0.778083         0.149474
 H         3.802228         0.706754        -1.746823
 H         3.843231        -1.014960        -2.229918
 H         1.719188        -1.189969         1.981662
