19
Iteration:  1370
 C         0.041518        -0.154225         0.008204
 C         1.514463         0.000970         0.025588
 C         2.249658         1.362798         0.267156
 C         3.371480         0.498892         1.055996
 C         4.012375        -0.609947         0.085972
 C         3.493301        -0.287354        -1.316995
 O         2.079354        -0.430205        -1.328374
 O         3.205871        -1.705832         0.621441
 C         2.411679        -0.693814         1.160126
 H        -0.386222        -0.535246         0.864136
 H        -0.468818         0.740484        -0.448408
 H        -0.063566        -0.966881        -0.722791
 H         2.386970         1.917557        -0.648574
 H         1.655843         2.061049         0.964170
 H         3.910882         0.807131         1.968311
 H         5.129990        -0.799646         0.222771
 H         3.938710         0.727359        -1.582650
 H         3.734135        -1.128908        -2.044534
 H         1.925417        -0.975093         2.111482
