19
Iteration:  2665charge 0 multiplicity 1
 C         0.046633        -0.192487        -0.058454
 C         1.572493         0.067586        -0.010791
 C         2.298724         1.380077         0.529691
 C         3.339952         0.465630         1.048404
 C         3.954864        -0.645468         0.045281
 C         3.463713        -0.360803        -1.357832
 O         2.020924        -0.274931        -1.432437
 O         3.310127        -1.708053         0.689036
 C         2.378241        -0.771594         1.126369
 H        -0.526282         0.198487         0.881349
 H        -0.517094         0.160711        -0.969079
 H        -0.053838        -1.363810         0.022362
 H         2.546469         2.087248        -0.321806
 H         1.749277         2.075668         1.198610
 H         3.834032         0.873535         1.909306
 H         5.108134        -0.641811         0.116771
 H         3.852816         0.504137        -1.814494
 H         3.748651        -1.176023        -2.121574
 H         1.768683        -1.221852         1.924975
