19
Iteration:   945
 C        -0.032087        -0.183142        -0.019561
 C         1.500368         0.056595        -0.089271
 C         2.235719         1.338045         0.455704
 C         3.319524         0.470738         1.060051
 C         4.093059        -0.560957         0.087755
 C         3.480201        -0.471210        -1.367087
 O         2.058727        -0.345573        -1.437092
 O         3.355785        -1.630829         0.680671
 C         2.347735        -0.693552         1.167940
 H        -0.448485         0.287395         0.903973
 H        -0.583536         0.200612        -0.986579
 H        -0.196634        -1.281825         0.114512
 H         2.355597         2.204002        -0.183240
 H         1.706662         1.715731         1.426659
 H         3.846945         0.946340         1.834095
 H         5.233406        -0.752076         0.039744
 H         3.930460         0.324189        -1.856515
 H         3.794175        -1.369041        -1.958296
 H         1.859394        -1.045277         2.022123
