19
Iteration:  1418charge 0 multiplicity 1
 C         0.105533         0.000284        -0.125863
 C         1.556219         0.014948        -0.050108
 C         2.116969         1.281973         0.542948
 C         3.345242         0.520339         1.121974
 C         4.040866        -0.475075         0.085418
 C         3.466219        -0.530215        -1.400318
 O         1.937711        -0.384668        -1.382690
 O         3.427982        -1.706692         0.643707
 C         2.384923        -0.777308         1.155679
 H        -0.424696         0.451823         0.883918
 H        -0.070408         0.632391        -1.064222
 H        -0.347995        -1.049999        -0.207812
 H         2.390536         1.963991        -0.339486
 H         1.551720         1.818253         1.215909
 H         3.876740         1.111037         1.923534
 H         5.159640        -0.468340        -0.017114
 H         3.876278         0.252732        -1.938203
 H         3.641160        -1.505273        -1.766153
 H         1.768517        -1.086386         1.981773
