19
Iteration:  1687charge 0 multiplicity 1
 C         0.075099        -0.089680        -0.130588
 C         1.507113         0.037451         0.045324
 C         2.178435         1.385218         0.440071
 C         3.331455         0.479262         1.043922
 C         4.058407        -0.553303         0.008163
 C         3.494206        -0.432436        -1.376977
 O         2.056478        -0.444193        -1.270195
 O         3.336174        -1.741312         0.649570
 C         2.335955        -0.646041         1.183498
 H        -0.498475        -0.010423         0.712931
 H        -0.344364         0.725426        -0.843749
 H         0.032985        -1.027873        -0.721208
 H         2.166340         1.954866        -0.377821
 H         1.672482         1.829815         1.311679
 H         3.767603         0.876826         2.003313
 H         5.158613        -0.646834        -0.063488
 H         3.682479         0.439995        -2.027532
 H         3.821448        -1.257507        -2.004527
 H         1.955092        -1.003762         2.189854
