19
Iteration:  4820
 C        -0.067115         0.065699        -0.116148
 C         1.501051         0.009772        -0.043343
 C         2.198700         1.268338         0.410886
 C         3.384807         0.377851         1.136837
 C         4.003991        -0.461396         0.073355
 C         3.443648        -0.307783        -1.331152
 O         2.003175        -0.482391        -1.221056
 O         3.449522        -1.733168         0.539107
 C         2.436794        -0.837282         1.155596
 H        -0.437418         0.967674        -0.635078
 H        -0.353715        -0.676119        -0.822915
 H        -0.578236         0.131523         0.859801
 H         2.478776         2.035935        -0.385457
 H         1.562458         1.862724         1.145371
 H         4.130860         0.945589         1.778336
 H         5.115663        -0.507831         0.095785
 H         3.576857         0.685813        -1.663363
 H         3.802173        -0.973988        -2.206247
 H         2.102599        -1.335922         2.121330
