19
Iteration:   916
 C         0.102998        -0.203986        -0.191763
 C         1.550010         0.010357         0.052749
 C         2.142976         1.375030         0.482227
 C         3.316476         0.464028         0.978234
 C         4.058866        -0.493410        -0.016799
 C         3.376570        -0.491395        -1.372429
 O         2.122858        -0.301663        -1.218669
 O         3.278104        -1.690473         0.675627
 C         2.408870        -0.712257         1.213323
 H        -0.506324         0.461988         0.458225
 H        -0.197799         0.168147        -1.095906
 H        -0.108777        -1.247475        -0.296563
 H         2.234495         1.993705        -0.452858
 H         1.714737         1.872614         1.299544
 H         4.072113         1.052712         1.640352
 H         5.074177        -0.639713        -0.024759
 H         3.792402         0.436550        -2.051423
 H         3.571382        -1.409615        -1.945911
 H         1.920733        -1.112005         2.226001
