19
Iteration:   173
 C         0.049264        -0.136598        -0.167740
 C         1.531732        -0.009943        -0.014606
 C         2.168295         1.240358         0.513756
 C         3.352240         0.479501         1.025552
 C         4.039982        -0.455181         0.013301
 C         3.409335        -0.457348        -1.377187
 O         2.015194        -0.284890        -1.289284
 O         3.357775        -1.698030         0.677209
 C         2.446958        -0.752573         1.182966
 H        -0.412375         0.081589         0.764865
 H        -0.191914         0.702024        -0.816843
 H        -0.347914        -1.185702        -0.584756
 H         2.283953         2.080524        -0.310354
 H         1.581038         1.741189         1.417879
 H         3.964191         0.991224         1.810569
 H         5.167545        -0.466464         0.030300
 H         3.800779         0.305294        -2.160487
 H         3.710936        -1.425131        -1.816564
 H         1.966202        -0.915483         2.154430
