19
Iteration:  3267
 C         0.072624        -0.250185        -0.076939
 C         1.574524         0.064210        -0.044554
 C         2.200251         1.363547         0.481287
 C         3.367744         0.500768         0.978334
 C         3.986135        -0.548855         0.000687
 C         3.492823        -0.422349        -1.383032
 O         2.020387        -0.307632        -1.372680
 O         3.254255        -1.758521         0.726983
 C         2.444669        -0.691700         1.245104
 H        -0.337611        -0.149435         0.897544
 H        -0.505076         0.604193        -0.687487
 H        -0.179700        -1.123491        -0.859463
 H         2.370835         2.267456        -0.184088
 H         1.694878         1.705691         1.406221
 H         4.015801         0.815207         1.902527
 H         5.096488        -0.602757        -0.010627
 H         3.718038         0.617487        -1.730973
 H         3.747705        -1.212042        -2.109778
 H         1.782121        -0.969705         2.102819
