19
Iteration:   652
 C         0.051269        -0.167344        -0.190581
 C         1.554085         0.022151         0.026646
 C         2.246288         1.351697         0.463786
 C         3.387620         0.497129         1.064587
 C         3.997380        -0.519758         0.018074
 C         3.459957        -0.346227        -1.445302
 O         2.036335        -0.418495        -1.241223
 O         3.314016        -1.718536         0.613674
 C         2.333289        -0.721469         1.263966
 H        -0.541210         0.054441         0.652465
 H        -0.152455         0.372435        -1.079717
 H        -0.116567        -1.189517        -0.416242
 H         2.276403         2.277246        -0.236596
 H         1.687174         1.663133         1.324608
 H         4.053819         0.883161         1.789252
 H         5.036531        -0.601183         0.127359
 H         3.714135         0.678413        -1.897091
 H         3.710714        -1.119663        -2.028744
 H         1.830644        -1.141248         2.199869
