19
Iteration:  3009charge 0 multiplicity 1
 C         0.049851        -0.136177        -0.089687
 C         1.531681         0.000427        -0.031922
 C         2.249263         1.296407         0.441503
 C         3.365338         0.447528         0.988082
 C         3.960438        -0.515956         0.024034
 C         3.456388        -0.323764        -1.336705
 O         2.032589        -0.292962        -1.280602
 O         3.324550        -1.723314         0.642833
 C         2.405767        -0.785009         1.190651
 H        -0.367064         0.610156         0.588298
 H        -0.362822        -0.032758        -1.150111
 H        -0.419529        -1.070608         0.013312
 H         2.446341         2.173671        -0.252420
 H         1.489058         1.506959         1.285905
 H         3.998298         0.866461         1.835513
 H         5.164361        -0.624561         0.096628
 H         3.949578         0.523508        -1.875095
 H         3.810618        -1.282462        -1.862328
 H         1.815607        -1.128413         2.099043
