19
Iteration:   830charge 0 multiplicity 1
 C        -0.041619        -0.030655         0.016929
 C         1.515466        -0.042089        -0.116761
 C         2.259832         1.264594         0.309204
 C         3.243158         0.446713         1.061726
 C         4.036793        -0.465111         0.120853
 C         3.552887        -0.374429        -1.310232
 O         2.041208        -0.454396        -1.299850
 O         3.395215        -1.625092         0.590181
 C         2.355950        -0.775128         1.125790
 H        -0.264945         0.156611         1.151742
 H        -0.473720         0.731881        -0.625468
 H        -0.539440        -1.031691        -0.180536
 H         2.586039         2.081055        -0.459266
 H         1.567301         1.806528         1.080089
 H         3.794355         0.880056         1.978726
 H         5.178906        -0.544927         0.276904
 H         3.840183         0.399763        -1.944674
 H         3.844317        -1.298514        -1.729653
 H         1.879979        -1.117293         2.115370
