19
Iteration:  2165
 C         0.050609        -0.009935        -0.180802
 C         1.498513        -0.016577         0.088189
 C         2.252854         1.337423         0.477598
 C         3.304699         0.442257         1.059435
 C         4.029759        -0.521588        -0.028562
 C         3.437412        -0.387290        -1.423399
 O         1.975472        -0.390359        -1.272099
 O         3.441915        -1.711828         0.674826
 C         2.361844        -0.801643         1.153119
 H        -0.431359         0.605885         0.536923
 H        -0.187442         0.334298        -1.229058
 H        -0.364625        -1.040277        -0.083178
 H         2.513132         2.093485        -0.232335
 H         1.662716         1.790830         1.305000
 H         3.876332         0.839656         1.988417
 H         5.109952        -0.542832        -0.041477
 H         3.678569         0.642878        -1.700042
 H         3.681525        -1.264588        -2.009452
 H         2.018788        -1.258997         2.082299
