19
Iteration:  2202
 C        -0.000245        -0.070832         0.041627
 C         1.533357        -0.032472        -0.049838
 C         2.257290         1.326659         0.411188
 C         3.320916         0.461731         1.057244
 C         4.067066        -0.518037         0.045872
 C         3.564991        -0.358957        -1.374301
 O         2.044050        -0.471524        -1.278164
 O         3.277452        -1.650984         0.602424
 C         2.296782        -0.745911         1.060900
 H        -0.414035         0.068295         1.114745
 H        -0.297089         0.842305        -0.571185
 H        -0.394374        -1.020289        -0.327932
 H         2.564273         2.041306        -0.369346
 H         1.700116         1.801531         1.235141
 H         3.821949         0.558292         2.046841
 H         5.158277        -0.546421         0.068134
 H         3.972271         0.575654        -1.799102
 H         3.877000        -1.062166        -2.163846
 H         1.846378        -0.968392         2.067772
