19
Iteration:   250charge 0 multiplicity 1
 C         0.052016        -0.052397         0.054643
 C         1.532458        -0.017446        -0.084696
 C         2.206993         1.297174         0.400266
 C         3.216742         0.492673         1.080437
 C         4.085366        -0.539148         0.028794
 C         3.503734        -0.346947        -1.377145
 O         2.073723        -0.413114        -1.280327
 O         3.375444        -1.667567         0.634300
 C         2.323077        -0.801224         1.064308
 H        -0.094150         0.221914         1.078493
 H        -0.604926         0.539271        -0.572673
 H        -0.284326        -1.123123        -0.190454
 H         2.715628         1.966406        -0.346373
 H         1.473813         1.885429         1.121569
 H         3.648378         0.831314         1.976525
 H         5.192057        -0.508032         0.049326
 H         3.764999         0.586766        -1.823460
 H         3.750018        -1.200546        -1.941069
 H         1.673997        -1.221730         1.788526
