19
Iteration:  4791
 C         0.089237        -0.119350        -0.008538
 C         1.546036         0.021655        -0.030347
 C         2.188350         1.336358         0.489704
 C         3.374194         0.393478         1.132249
 C         4.005484        -0.567599         0.017364
 C         3.483976        -0.299568        -1.438011
 O         2.014671        -0.356494        -1.345671
 O         3.328808        -1.739142         0.659305
 C         2.359337        -0.723864         1.093620
 H        -0.346364         0.492389        -0.793479
 H        -0.253746        -1.102139        -0.455135
 H        -0.492456         0.083549         0.964130
 H         2.445246         2.038763        -0.305796
 H         1.617792         1.782771         1.300788
 H         4.084838         0.712770         1.975476
 H         5.104323        -0.745596        -0.010979
 H         3.734767         0.791708        -1.760251
 H         3.767719        -0.969941        -2.244373
 H         1.746837        -0.969604         2.044618
