19
Iteration:  1361
 C         0.093352        -0.220391        -0.025684
 C         1.623041        -0.032022        -0.015972
 C         2.248873         1.329498         0.233568
 C         3.406554         0.483532         1.024821
 C         4.022822        -0.556380         0.095867
 C         3.489272        -0.317319        -1.253846
 O         2.043690        -0.408484        -1.247397
 O         3.141160        -1.691313         0.571327
 C         2.348107        -0.671820         1.194393
 H        -0.395509        -0.400366         1.007593
 H        -0.409333         0.872514        -0.309938
 H        -0.311620        -0.928398        -0.823184
 H         2.528128         2.055887        -0.575277
 H         1.585715         1.836184         0.955011
 H         3.950587         0.974992         1.917901
 H         5.154328        -0.788056        -0.153118
 H         3.727318         0.656238        -1.518890
 H         4.011049        -0.883150        -2.045691
 H         1.876939        -0.905183         2.131664
