19
Iteration:  3657charge 0 multiplicity 1
 C         0.054682         0.048209        -0.001297
 C         1.551217        -0.031900        -0.050490
 C         2.276684         1.349457         0.391858
 C         3.228225         0.445743         1.121582
 C         4.068398        -0.486329         0.082966
 C         3.406557        -0.379120        -1.379855
 O         1.993156        -0.576412        -1.283359
 O         3.454818        -1.624612         0.646531
 C         2.317174        -0.763740         1.019618
 H        -0.445098        -0.156316         0.899334
 H        -0.226810         0.951287        -0.384714
 H        -0.439391        -0.740286        -0.693727
 H         2.588074         2.042349        -0.364801
 H         1.584878         1.657576         1.091298
 H         3.917098         0.654223         1.922756
 H         5.144522        -0.541637         0.105235
 H         3.698921         0.721448        -1.790997
 H         3.815322        -1.238062        -1.863236
 H         1.824820        -1.245734         1.861438
