19
Iteration:  4556
 C        -0.103062        -0.025100        -0.002333
 C         1.474201         0.010080        -0.093605
 C         2.264258         1.379148         0.496867
 C         3.382526         0.392736         1.093202
 C         4.084878        -0.494851         0.041514
 C         3.455619        -0.292142        -1.333136
 O         1.979333        -0.441527        -1.352041
 O         3.457801        -1.747374         0.599330
 C         2.366752        -0.814203         1.111297
 H        -0.499217        -0.120500        -1.051925
 H        -0.259968        -0.968742         0.461275
 H        -0.489873         0.705169         0.628332
 H         2.493577         2.056470        -0.339242
 H         1.663114         1.873949         1.287249
 H         4.034572         0.724086         1.829702
 H         5.170553        -0.627592         0.035330
 H         3.724510         0.708958        -1.573516
 H         3.853792        -1.013040        -2.098777
 H         1.678388        -1.108746         1.901375
