19
Iteration:  4292charge 0 multiplicity 1
 C        -0.021939        -0.224123        -0.032663
 C         1.557446        -0.015224         0.013209
 C         2.264909         1.382963         0.483149
 C         3.341017         0.384043         0.990918
 C         4.044800        -0.597308        -0.027245
 C         3.510132        -0.316634        -1.334893
 O         2.028783        -0.278265        -1.276729
 O         3.294521        -1.693378         0.642756
 C         2.356080        -0.701721         1.085987
 H        -0.512058         0.351055        -0.866883
 H        -0.297101        -1.363871        -0.059045
 H        -0.548322        -0.024633         0.851817
 H         2.264541         1.926626        -0.403099
 H         2.075549         2.026416         1.328425
 H         3.860250         0.741484         1.948828
 H         5.176352        -0.656784        -0.172108
 H         3.988110         0.671304        -1.694786
 H         3.888841        -1.009390        -2.140082
 H         1.763551        -0.977195         2.014737
