19
Iteration:  4632
 C         0.026813        -0.252264        -0.002185
 C         1.514378         0.099543        -0.034380
 C         2.269064         1.356929         0.484770
 C         3.379474         0.406497         1.014020
 C         4.037163        -0.546627        -0.002490
 C         3.429877        -0.317121        -1.363145
 O         2.033525        -0.300818        -1.381392
 O         3.287718        -1.752879         0.721898
 C         2.383650        -0.754311         1.116605
 H        -0.440071         0.729732        -0.279643
 H        -0.303805        -0.955913        -0.693696
 H        -0.232196        -0.347310         0.966842
 H         2.512905         2.098085        -0.298944
 H         1.658272         1.908976         1.253268
 H         3.977571         0.800137         1.774105
 H         5.120316        -0.522789        -0.087934
 H         3.887266         0.636898        -1.789649
 H         3.870021        -1.208955        -1.987069
 H         1.785473        -1.112396         1.941740
