19
Iteration:  4816charge 0 multiplicity 1
 C        -0.036638         0.038618        -0.110674
 C         1.468139        -0.000635        -0.025782
 C         2.248420         1.298768         0.424386
 C         3.366405         0.389056         1.086897
 C         4.029117        -0.482990         0.062075
 C         3.430038        -0.294848        -1.317942
 O         2.015946        -0.472043        -1.228666
 O         3.446015        -1.704396         0.573369
 C         2.410010        -0.875942         1.136657
 H        -0.514250         0.965634        -0.727194
 H        -0.545907        -0.724963        -0.800152
 H        -0.521739         0.068224         0.835039
 H         2.476473         2.009094        -0.344400
 H         1.645541         1.756976         1.201882
 H         4.104020         0.791937         1.708775
 H         5.103008        -0.511243         0.089540
 H         3.666736         0.752455        -1.652725
 H         3.673188        -0.912644        -2.142616
 H         2.003655        -1.166604         2.058752
