19
Iteration:  4659
 C         0.069259        -0.003354        -0.029817
 C         1.559479        -0.034770        -0.039160
 C         2.221809         1.243494         0.432542
 C         3.291201         0.419462         1.163516
 C         4.045237        -0.488602         0.059940
 C         3.433307        -0.348754        -1.413813
 O         1.998382        -0.428762        -1.291402
 O         3.411395        -1.667869         0.557145
 C         2.351297        -0.786918         1.141289
 H        -0.205590         1.052196        -0.089164
 H        -0.525114        -0.584409        -0.813600
 H        -0.435100        -0.170229         1.055015
 H         2.625651         1.914881        -0.344757
 H         1.511027         1.867083         0.939002
 H         3.869257         0.890492         2.025804
 H         5.159942        -0.387770         0.030888
 H         3.692568         0.563707        -1.941113
 H         3.817794        -1.158671        -1.956960
 H         1.740145        -1.373598         1.873503
