19
Iteration:  3953
 C         0.052250        -0.008400        -0.111524
 C         1.554973        -0.073213         0.009300
 C         2.213950         1.244908         0.489475
 C         3.379861         0.451905         1.028185
 C         3.980906        -0.462710         0.046768
 C         3.396000        -0.268951        -1.368046
 O         2.043918        -0.438510        -1.298756
 O         3.378133        -1.727453         0.648043
 C         2.374618        -0.804226         1.123118
 H        -0.338607         0.471837        -0.966664
 H        -0.428643        -0.951438        -0.100004
 H        -0.349956         0.529301         0.782924
 H         2.535110         2.125968        -0.184028
 H         1.504200         1.628207         1.292848
 H         4.175054         0.762411         1.756334
 H         5.069424        -0.622477         0.015693
 H         3.554740         0.790695        -1.878722
 H         3.717752        -0.939827        -2.154358
 H         1.843469        -1.018908         2.046994
