19
Iteration:   717
 C         0.003680        -0.055275         0.048422
 C         1.561056        -0.117585        -0.113411
 C         2.268136         1.313074         0.366871
 C         3.236982         0.436392         1.175928
 C         4.039140        -0.420687         0.115558
 C         3.497884        -0.378522        -1.382136
 O         2.041424        -0.455174        -1.440645
 O         3.383020        -1.666898         0.660211
 C         2.330749        -0.755466         1.124220
 H        -0.088498         0.106447         1.107272
 H        -0.433149         0.830335        -0.415425
 H        -0.642858        -0.882692        -0.133668
 H         2.726012         2.035740        -0.468502
 H         1.619490         1.959644         0.922851
 H         3.826966         0.731923         1.979535
 H         5.078036        -0.429166         0.148694
 H         3.722298         0.544725        -1.729235
 H         4.003347        -1.034720        -2.122874
 H         1.610845        -1.099419         1.973278
