19
Iteration:  2436charge 0 multiplicity 1
 C         0.142624        -0.025259        -0.028168
 C         1.582891         0.015834        -0.102551
 C         2.233063         1.287896         0.387884
 C         3.305887         0.483253         1.097456
 C         3.982051        -0.504358         0.066462
 C         3.449605        -0.382835        -1.311394
 O         2.025548        -0.454672        -1.293965
 O         3.313192        -1.670361         0.628548
 C         2.364460        -0.771856         1.108307
 H        -0.320156         0.041903         0.987063
 H        -0.291900         0.864541        -0.544137
 H        -0.281076        -1.016422        -0.356198
 H         2.310622         2.057230        -0.388601
 H         1.448510         1.606237         1.062672
 H         3.875977         0.618073         1.951259
 H         5.119164        -0.588322         0.089368
 H         3.695959         0.537873        -1.956839
 H         3.873828        -1.127057        -2.025203
 H         1.886821        -1.146379         2.016448
