19
Iteration:  1524charge 0 multiplicity 1
 C         0.032623        -0.082453        -0.093166
 C         1.511419         0.017024        -0.014121
 C         2.138727         1.370226         0.442373
 C         3.316944         0.479754         0.995501
 C         4.038760        -0.542664         0.061038
 C         3.476622        -0.539026        -1.288698
 O         2.032259        -0.281487        -1.318844
 O         3.412365        -1.769959         0.649992
 C         2.379197        -0.690559         1.111515
 H        -0.173350        -0.110051         0.898877
 H        -0.592254         0.730411        -0.501146
 H        -0.185970        -1.028629        -0.558865
 H         2.264665         2.059302        -0.451074
 H         1.481605         1.876990         1.243239
 H         4.022676         0.821991         1.816260
 H         5.183679        -0.450713         0.015560
 H         3.936117         0.283321        -1.758656
 H         3.867628        -1.486467        -1.815233
 H         1.813713        -0.939672         2.043732
