19
Iteration:  4789
 C         0.094582        -0.130190        -0.013275
 C         1.547141         0.036909        -0.036623
 C         2.194931         1.335262         0.488931
 C         3.372750         0.410134         1.139146
 C         4.000831        -0.571665         0.023379
 C         3.477867        -0.300236        -1.434830
 O         2.018795        -0.348555        -1.353608
 O         3.316083        -1.736771         0.649391
 C         2.368357        -0.742204         1.102919
 H        -0.332078         0.445833        -0.746405
 H        -0.254395        -1.108156        -0.354616
 H        -0.475500         0.046723         0.953508
 H         2.431535         2.056070        -0.335615
 H         1.553009         1.753122         1.294403
 H         4.154216         0.696840         1.955748
 H         5.111936        -0.733485         0.032938
 H         3.779640         0.765864        -1.746249
 H         3.736612        -1.018245        -2.274793
 H         1.723202        -0.916624         2.057314
