19
Iteration:  4367
 C        -0.017280         0.019220        -0.126092
 C         1.424597         0.025724         0.059040
 C         2.172032         1.227953         0.473564
 C         3.396889         0.407029         0.980594
 C         4.103135        -0.533161         0.026163
 C         3.403726        -0.207966        -1.292171
 O         2.033285        -0.458496        -1.267470
 O         3.413609        -1.761639         0.553994
 C         2.427372        -0.792286         1.163212
 H        -0.309630         0.391482        -1.125395
 H        -0.527934        -1.020960         0.001391
 H        -0.551382         0.518406         0.666192
 H         2.535677         1.983179        -0.284563
 H         1.612503         1.887228         1.239207
 H         3.815654         0.893966         1.926917
 H         5.213135        -0.527905        -0.172870
 H         3.696381         0.787527        -1.581409
 H         3.767405        -1.015255        -2.087061
 H         2.137902        -1.062785         2.226075
