19
Iteration:  1535
 C         0.022147        -0.078125        -0.081368
 C         1.555459         0.012164        -0.019852
 C         2.120288         1.328078         0.436067
 C         3.342067         0.438076         1.007634
 C         4.056759        -0.483951         0.012380
 C         3.468660        -0.489246        -1.421969
 O         2.041407        -0.302368        -1.305860
 O         3.391186        -1.714860         0.778921
 C         2.399510        -0.761329         1.131724
 H        -0.558923        -0.174760         0.738406
 H        -0.216439         0.869749        -0.646026
 H        -0.349853        -0.868407        -0.725755
 H         2.306806         2.159715        -0.319745
 H         1.567575         1.787825         1.342024
 H         3.898594         0.761547         1.940622
 H         5.195258        -0.572771         0.132634
 H         3.870654         0.257970        -2.014442
 H         3.488446        -1.474781        -2.009087
 H         1.766130        -0.977039         2.026780
