19
Iteration:   823charge 0 multiplicity 1
 C        -0.029820        -0.056667         0.011001
 C         1.496245         0.019230        -0.084495
 C         2.203343         1.308536         0.359305
 C         3.290695         0.446180         1.050719
 C         4.087066        -0.481853         0.107911
 C         3.504320        -0.414407        -1.320825
 O         2.049289        -0.459119        -1.302045
 O         3.401521        -1.638702         0.623938
 C         2.342470        -0.786323         1.124271
 H        -0.386830         0.389165         0.902864
 H        -0.547379         0.702670        -0.704630
 H        -0.287566        -1.042097        -0.427563
 H         2.444922         1.915534        -0.454974
 H         1.595425         1.833335         1.118068
 H         3.954786         0.755559         1.842911
 H         5.217832        -0.350494         0.295723
 H         3.860433         0.492025        -1.931184
 H         3.842155        -1.329010        -1.905221
 H         1.826240        -1.140910         1.945094
