19
Iteration:   463
 C         0.052448        -0.152954         0.027306
 C         1.541051         0.038222        -0.031386
 C         2.242220         1.321609         0.363468
 C         3.245196         0.414868         1.080722
 C         4.076356        -0.543548         0.078618
 C         3.493660        -0.282807        -1.329882
 O         2.047280        -0.380703        -1.354502
 O         3.284737        -1.719984         0.598716
 C         2.372525        -0.767313         1.094579
 H        -0.398696         0.197888         0.932577
 H        -0.468161         0.288145        -0.822194
 H        -0.109517        -1.221249         0.190702
 H         2.629113         2.072194        -0.372729
 H         1.590045         2.071016         0.929523
 H         3.898742         0.796401         1.955840
 H         5.171926        -0.665576         0.356083
 H         3.825358         0.770608        -1.723486
 H         3.885327        -0.909109        -2.050303
 H         1.842706        -1.050173         2.094622
