19
Iteration:  2037charge 0 multiplicity 1
 C        -0.041982         0.019263        -0.191353
 C         1.554954        -0.041851         0.017873
 C         2.189748         1.306989         0.488856
 C         3.336893         0.442824         1.035418
 C         3.984573        -0.489316        -0.008954
 C         3.462377        -0.448868        -1.314867
 O         2.034431        -0.444044        -1.244399
 O         3.403317        -1.637038         0.563438
 C         2.453658        -0.798962         1.209141
 H        -0.446748         0.038645         0.759794
 H        -0.353413         1.106111        -0.585412
 H        -0.546514        -0.798163        -0.726370
 H         2.252796         1.997926        -0.358458
 H         1.763967         1.601658         1.568332
 H         3.989714         0.902030         1.859734
 H         5.034426        -0.676334         0.129282
 H         3.727082         0.472956        -1.920876
 H         3.852070        -1.135554        -2.074704
 H         1.907013        -1.017541         2.215339
