19
Iteration:  2637charge 0 multiplicity 1
 C        -0.013567        -0.074703        -0.112451
 C         1.557244         0.012035         0.017022
 C         2.214733         1.318318         0.492901
 C         3.377897         0.416382         1.009325
 C         4.009362        -0.544682         0.030590
 C         3.459532        -0.389893        -1.315493
 O         2.056548        -0.349390        -1.270069
 O         3.337134        -1.688958         0.608043
 C         2.417173        -0.758797         1.112585
 H        -0.484466         0.344773         0.712380
 H        -0.453673         0.359768        -1.095551
 H        -0.450951        -1.011743        -0.309646
 H         2.362615         2.056662        -0.305928
 H         1.613604         1.860287         1.219104
 H         3.900646         0.682000         1.967684
 H         5.073158        -0.481820         0.158313
 H         3.758618         0.485306        -1.999387
 H         3.654024        -1.304665        -1.834153
 H         1.927355        -1.041090         2.072756
