19
Iteration:  3244
 C         0.024218        -0.142890        -0.105842
 C         1.531976        -0.037966         0.030908
 C         2.231641         1.298293         0.467167
 C         3.357646         0.480215         1.026259
 C         4.040274        -0.608728         0.015625
 C         3.453962        -0.363949        -1.349335
 O         2.030923        -0.308213        -1.309005
 O         3.349746        -1.634795         0.691817
 C         2.361502        -0.744848         1.123140
 H        -0.434142         0.306215         0.757574
 H        -0.338054         0.355386        -1.036767
 H        -0.236382        -1.278480        -0.379962
 H         2.401778         2.043847        -0.373496
 H         1.620364         1.795739         1.266303
 H         4.079281         0.849492         1.805425
 H         5.171230        -0.763523         0.053498
 H         3.839315         0.584468        -1.862085
 H         3.512757        -1.198945        -2.027647
 H         1.743407        -1.083961         1.987459
