19
Iteration:  1693charge 0 multiplicity 1
 C         0.003682        -0.082993        -0.160070
 C         1.542415         0.067489         0.041102
 C         2.181709         1.385344         0.440199
 C         3.317979         0.440608         1.069806
 C         4.081991        -0.569891         0.037947
 C         3.487983        -0.390682        -1.431489
 O         2.060644        -0.494643        -1.271990
 O         3.354947        -1.750689         0.658610
 C         2.340616        -0.638248         1.172380
 H        -0.405500        -0.105793         0.970809
 H        -0.362750         0.783416        -0.681327
 H        -0.253305        -1.041175        -0.618180
 H         2.220408         2.172614        -0.506556
 H         1.645540         1.941173         1.239393
 H         3.883440         0.871500         1.874038
 H         5.170660        -0.573170         0.211318
 H         3.676943         0.594218        -1.948259
 H         3.875208        -1.254699        -2.062479
 H         1.888967        -0.929141         2.104473
