19
Iteration:   541
 C         0.048658        -0.027671        -0.253580
 C         1.514796        -0.042144         0.079715
 C         2.173118         1.274952         0.478582
 C         3.352313         0.480223         1.100635
 C         4.065977        -0.571296        -0.072834
 C         3.465360        -0.335153        -1.432660
 O         1.974224        -0.435205        -1.215080
 O         3.370372        -1.676902         0.643319
 C         2.437286        -0.741458         1.249185
 H        -0.599971        -0.093503         0.567944
 H        -0.232736         0.819396        -0.874646
 H        -0.110387        -0.895809        -0.905531
 H         2.321815         2.021072        -0.365606
 H         1.612444         1.616865         1.363884
 H         3.988690         0.905023         1.952083
 H         5.159447        -0.673198        -0.000611
 H         3.466154         0.858210        -1.608303
 H         3.727530        -0.991456        -2.178289
 H         1.928417        -1.146925         2.219927
