19
Iteration:  2537
 C         0.055352        -0.161558        -0.046146
 C         1.538273         0.021770         0.007396
 C         2.184664         1.413630         0.481073
 C         3.367290         0.467996         1.002820
 C         4.005060        -0.555856         0.081499
 C         3.529843        -0.475344        -1.379342
 O         2.069836        -0.310185        -1.308065
 O         3.271675        -1.683435         0.608969
 C         2.372470        -0.736349         1.094906
 H        -0.387741         0.010080         0.890870
 H        -0.560017         0.528766        -0.833886
 H        -0.151800        -1.193688        -0.329079
 H         2.413386         2.223224        -0.227010
 H         1.689697         1.603017         1.408051
 H         4.024945         0.833798         1.853797
 H         5.081799        -0.739524         0.158019
 H         3.949559         0.444964        -1.942251
 H         3.563415        -1.401063        -1.888579
 H         1.741418        -1.018007         1.992007
