19
Iteration:  1869
 C         0.054156         0.004722        -0.012104
 C         1.577316        -0.083446        -0.059065
 C         2.210685         1.289313         0.351998
 C         3.294016         0.489770         1.144948
 C         3.983466        -0.478901         0.119804
 C         3.481902        -0.329560        -1.373281
 O         2.057020        -0.520953        -1.342432
 O         3.352076        -1.658085         0.627230
 C         2.332104        -0.765725         1.115316
 H        -0.041942         0.060723         1.085002
 H        -0.285570         0.899125        -0.413550
 H        -0.573947        -0.788788        -0.377601
 H         2.479241         1.930465        -0.535357
 H         1.451875         1.807599         0.895247
 H         3.993138         0.800024         1.945634
 H         5.045586        -0.671767         0.163193
 H         3.915849         0.576984        -1.885625
 H         4.021479        -1.057151        -1.990798
 H         1.707846        -1.132297         1.910340
