19
Iteration:  3882charge 0 multiplicity 1
 C         0.154151        -0.145662         0.042431
 C         1.623438         0.027504        -0.113323
 C         2.172738         1.380361         0.515519
 C         3.282884         0.403548         1.142204
 C         4.010289        -0.548795        -0.000537
 C         3.449597        -0.394050        -1.387598
 O         1.991280        -0.268139        -1.355879
 O         3.304122        -1.748432         0.636197
 C         2.404372        -0.732841         1.084914
 H        -0.331468         0.168765        -0.987637
 H        -0.097978        -1.289274         0.132606
 H        -0.333928         0.343794         0.817479
 H         2.455932         1.966614        -0.328110
 H         1.440639         1.966844         1.038076
 H         3.903914         0.675305         2.034317
 H         5.088148        -0.589454         0.237884
 H         3.950056         0.515181        -1.996582
 H         3.646873        -1.315104        -2.083111
 H         1.843906        -0.974754         2.050422
