19
Iteration:  2568charge 0 multiplicity 1
 C        -0.002092        -0.046879        -0.027035
 C         1.530103        -0.003309        -0.015520
 C         2.272449         1.302048         0.333069
 C         3.299583         0.449363         1.128061
 C         4.014434        -0.552436         0.132880
 C         3.479678        -0.324189        -1.396440
 O         2.013798        -0.397593        -1.343826
 O         3.345798        -1.694094         0.645040
 C         2.409637        -0.762853         1.150084
 H        -0.189554        -0.167182         0.983750
 H        -0.498865         0.769004        -0.610113
 H        -0.181494        -0.950989        -0.596539
 H         2.628376         2.076205        -0.372053
 H         1.646383         1.959826         0.872445
 H         3.899318         0.647230         2.004018
 H         5.125388        -0.809935         0.142609
 H         3.784339         0.652822        -1.897068
 H         3.634804        -1.127721        -2.163988
 H         1.814696        -1.243163         1.964518
