19
Iteration:   798charge 0 multiplicity 1
 C         0.064097        -0.177738        -0.209346
 C         1.555922        -0.038727        -0.016958
 C         2.239308         1.384784         0.489474
 C         3.310105         0.516364         1.035448
 C         3.965238        -0.602742        -0.012797
 C         3.423230        -0.353924        -1.406117
 O         1.999524        -0.407422        -1.255518
 O         3.369105        -1.673020         0.723567
 C         2.427947        -0.702966         1.198100
 H        -0.526828         0.395855         0.568298
 H        -0.193089         0.422515        -1.112364
 H        -0.182943        -1.235581        -0.500896
 H         2.442442         2.262107        -0.213502
 H         1.598438         1.698681         1.415464
 H         3.994092         0.836967         1.909414
 H         5.136908        -0.754287        -0.000623
 H         3.778328         0.507995        -1.914892
 H         3.706262        -1.219086        -1.955070
 H         1.980240        -0.850324         2.191999
