19
Iteration:  1020
 C         0.022587        -0.024731        -0.153219
 C         1.507383        -0.008923         0.019773
 C         2.168441         1.375507         0.524728
 C         3.317009         0.475383         1.008842
 C         4.088042        -0.528779        -0.011722
 C         3.462875        -0.428388        -1.388511
 O         2.030599        -0.526058        -1.291647
 O         3.384621        -1.642932         0.694976
 C         2.379831        -0.726823         1.176513
 H        -0.556018        -0.111868         0.660123
 H        -0.107563         0.884288        -0.814572
 H        -0.267367        -0.903310        -0.729110
 H         2.321743         2.207850        -0.131186
 H         1.449636         1.800815         1.367578
 H         3.980327         0.678161         1.770572
 H         5.239074        -0.564226         0.154147
 H         3.723415         0.560862        -1.902219
 H         3.739226        -1.215363        -2.127874
 H         1.944651        -1.156078         1.992753
