19
Iteration:   326
 C        -0.037665        -0.199686        -0.098540
 C         1.502033         0.033110        -0.047430
 C         2.276134         1.317366         0.426264
 C         3.388540         0.527226         1.102637
 C         4.031224        -0.555819         0.042251
 C         3.468141        -0.324613        -1.317260
 O         2.058937        -0.429454        -1.286772
 O         3.250102        -1.667162         0.579971
 C         2.444915        -0.743654         1.157384
 H        -0.551666         0.084493         0.797711
 H        -0.509297         0.315228        -0.925241
 H        -0.228655        -1.292602        -0.004135
 H         2.525005         2.112646        -0.249103
 H         1.772229         1.874914         1.142582
 H         4.003388         0.884267         1.880641
 H         5.093523        -0.723781         0.077945
 H         3.754734         0.695881        -1.680503
 H         3.846035        -1.013540        -2.155257
 H         1.932103        -0.960067         2.044364
