19
Iteration:   124
 C         0.094927        -0.106757         0.024214
 C         1.569482        -0.056543        -0.059458
 C         2.223930         1.369472         0.336528
 C         3.279682         0.442438         1.076187
 C         4.019080        -0.477343         0.060345
 C         3.458040        -0.265864        -1.333501
 O         2.045572        -0.443462        -1.305620
 O         3.353570        -1.716169         0.630438
 C         2.317223        -0.801848         1.099933
 H        -0.267503         0.473352         0.971047
 H        -0.463701         0.296498        -0.873560
 H        -0.085403        -1.118151         0.243682
 H         2.464697         2.234412        -0.343686
 H         1.590411         1.735755         1.063438
 H         3.887762         0.783795         1.888439
 H         5.072929        -0.516069         0.115784
 H         3.763628         0.638193        -1.790946
 H         3.884971        -1.046853        -2.065840
 H         1.681537        -1.094562         1.946305
