19
Iteration:  4796
 C         0.036839        -0.095487        -0.020839
 C         1.554224        -0.022683        -0.005369
 C         2.196399         1.325063         0.493890
 C         3.366915         0.367034         1.081922
 C         4.030997        -0.559603        -0.004675
 C         3.476903        -0.270706        -1.418422
 O         2.006495        -0.380863        -1.321498
 O         3.358940        -1.734729         0.677050
 C         2.336650        -0.696435         1.094514
 H        -0.350191         0.694768        -0.826803
 H        -0.174184        -1.021667        -0.554234
 H        -0.407918         0.145761         0.887853
 H         2.499457         2.083188        -0.250784
 H         1.759412         1.901106         1.345532
 H         3.795117         0.706957         1.981779
 H         5.092951        -0.743204        -0.091447
 H         3.653044         0.706052        -1.736935
 H         3.905556        -0.959226        -2.187569
 H         1.855433        -1.154667         1.899541
