19
Iteration:   345charge 0 multiplicity 1
 C         0.119472        -0.175152         0.059226
 C         1.558083        -0.005002        -0.036820
 C         2.247963         1.347962         0.346793
 C         3.288443         0.390886         1.058541
 C         4.017029        -0.506953         0.076977
 C         3.535611        -0.243400        -1.372528
 O         2.054401        -0.435808        -1.344760
 O         3.276715        -1.693519         0.625777
 C         2.258686        -0.688860         1.125900
 H        -0.164393        -0.068751         1.123272
 H        -0.491241         0.575197        -0.510483
 H        -0.206078        -1.303841        -0.140044
 H         2.439691         2.007844        -0.603477
 H         1.622047         1.891467         1.077688
 H         3.935171         0.793724         1.997354
 H         5.089183        -0.713290         0.075449
 H         3.903613         0.762417        -1.790019
 H         4.009706        -1.103788        -2.096954
 H         1.721634        -1.125403         2.075573
