19
Iteration:  2944charge 0 multiplicity 1
 C         0.050311        -0.130124        -0.028361
 C         1.581502         0.001107         0.020223
 C         2.219405         1.314416         0.411046
 C         3.351624         0.450707         1.111308
 C         3.960754        -0.509623         0.024927
 C         3.563741        -0.292733        -1.389140
 O         2.039005        -0.442195        -1.328483
 O         3.246807        -1.676787         0.605694
 C         2.368562        -0.738390         1.187025
 H        -0.454833        -0.215839         0.960178
 H        -0.367367         0.722758        -0.694792
 H        -0.183455        -1.070853        -0.496619
 H         2.612648         1.998423        -0.350281
 H         1.569824         1.990692         1.039001
 H         4.007128         0.675610         1.970531
 H         5.076988        -0.775532        -0.009916
 H         3.780133         0.700256        -1.978200
 H         3.897877        -1.013202        -2.151244
 H         1.798106        -1.173502         2.039455
