19
Iteration:  2668charge 0 multiplicity 1
 C         0.041298        -0.218942        -0.031838
 C         1.593767         0.058976        -0.044671
 C         2.297953         1.392981         0.527388
 C         3.340987         0.449664         1.048313
 C         3.921893        -0.629715         0.076271
 C         3.454335        -0.357847        -1.350861
 O         2.021436        -0.275239        -1.435730
 O         3.285837        -1.706304         0.672977
 C         2.417539        -0.771916         1.128779
 H        -0.461375         0.170450         0.799325
 H        -0.493015         0.302941        -1.020946
 H        -0.008542        -1.301278         0.069114
 H         2.521462         2.033532        -0.379501
 H         1.705183         2.027974         1.173171
 H         3.926304         0.898320         1.897247
 H         5.075245        -0.659173         0.113673
 H         3.962074         0.553398        -1.779721
 H         3.735453        -1.144720        -2.073737
 H         1.768770        -1.172816         1.968988
