19
Iteration:  2132charge 0 multiplicity 1
 C        -0.012748        -0.108673        -0.093003
 C         1.503662         0.043463         0.039117
 C         2.302332         1.337815         0.430426
 C         3.352650         0.454239         1.069304
 C         4.045125        -0.543479         0.045307
 C         3.472372        -0.369424        -1.344874
 O         2.004053        -0.381898        -1.347887
 O         3.312399        -1.718281         0.619158
 C         2.389647        -0.752880         1.152955
 H        -0.560941         0.437051         0.661572
 H        -0.439250         0.224274        -1.083216
 H        -0.183013        -1.175299         0.206933
 H         2.509896         2.114449        -0.269886
 H         1.724534         1.636145         1.307970
 H         3.921343         0.971122         1.939590
 H         5.109246        -0.728679         0.038045
 H         3.829438         0.619786        -1.836899
 H         3.915358        -0.962425        -2.147553
 H         1.934779        -1.187386         2.056231
