19
Iteration:  2189
 C         0.005452        -0.015530        -0.061277
 C         1.502585        -0.036172        -0.011224
 C         2.214889         1.315795         0.438614
 C         3.322064         0.441037         1.070163
 C         4.047084        -0.492484         0.056605
 C         3.474185        -0.379024        -1.337008
 O         2.088832        -0.456702        -1.328430
 O         3.318209        -1.703244         0.523009
 C         2.419600        -0.726468         1.190661
 H        -0.219232         0.353777         0.937663
 H        -0.519284         0.738534        -0.780754
 H        -0.518427        -0.974176        -0.182942
 H         2.446138         2.036632        -0.285489
 H         1.607743         1.736895         1.272900
 H         3.915655         1.040876         1.898167
 H         5.082118        -0.670794         0.125151
 H         3.660938         0.580742        -1.814832
 H         3.787033        -1.338203        -1.733517
 H         1.881293        -1.155797         2.090156
