19
Iteration:  4058charge 0 multiplicity 1
 C         0.038746        -0.069260        -0.124801
 C         1.581776        -0.028877         0.040510
 C         2.266339         1.255642         0.432320
 C         3.358716         0.483557         1.127430
 C         4.010003        -0.495293         0.050211
 C         3.397353        -0.308569        -1.372524
 O         2.015661        -0.472725        -1.252053
 O         3.333318        -1.641947         0.521617
 C         2.391564        -0.759050         1.175683
 H        -0.370020         0.909838        -0.447242
 H        -0.171367        -0.810669        -0.877794
 H        -0.561620        -0.421907         0.799909
 H         2.435334         1.873318        -0.380679
 H         1.742617         1.773149         1.202194
 H         3.975191         0.803012         1.956065
 H         5.087771        -0.578629         0.122411
 H         3.645179         0.675822        -1.749675
 H         3.676842        -1.092706        -2.119970
 H         1.886951        -1.155781         2.041973
