19
Iteration:  2965charge 0 multiplicity 1
 C         0.054672        -0.209749        -0.015104
 C         1.542525         0.031413        -0.098266
 C         2.302584         1.394486         0.449232
 C         3.318420         0.434154         1.060276
 C         4.015567        -0.548957         0.109115
 C         3.494830        -0.369538        -1.299526
 O         2.048910        -0.347019        -1.303341
 O         3.263393        -1.700943         0.579481
 C         2.327859        -0.707703         1.061835
 H        -0.226095        -0.126831         1.009152
 H        -0.700161         0.245357        -0.747163
 H        -0.046800        -1.239006        -0.215368
 H         2.479535         2.252243        -0.237124
 H         1.894305         1.819412         1.419912
 H         3.912126         0.925631         1.855804
 H         5.182679        -0.660740         0.027416
 H         3.840157         0.531363        -1.908900
 H         3.598448        -1.162315        -2.055323
 H         1.852331        -1.024572         2.024465
