19
Iteration:  4567charge 0 multiplicity 1
 C         0.060076        -0.129893        -0.016078
 C         1.523070         0.067748         0.007738
 C         2.231322         1.311737         0.464980
 C         3.353873         0.395008         1.109148
 C         4.061873        -0.560330         0.026691
 C         3.418513        -0.334857        -1.326432
 O         1.978285        -0.409318        -1.355080
 O         3.356780        -1.645355         0.563331
 C         2.382105        -0.719940         1.104549
 H        -0.335269        -0.055878        -1.071689
 H        -0.214421        -1.094220         0.305700
 H        -0.547970         0.565547         0.464068
 H         2.626176         2.145845        -0.094680
 H         1.787654         1.790663         1.354123
 H         3.874346         0.610143         1.983093
 H         5.147968        -0.665984        -0.068710
 H         3.724284         0.614188        -1.738196
 H         3.771390        -1.110074        -2.060088
 H         1.896415        -1.197115         1.949135
