19
Iteration:  2547
 C         0.064187        -0.174175        -0.007057
 C         1.555679        -0.005670        -0.002033
 C         2.238842         1.318866         0.456930
 C         3.314472         0.461640         0.989750
 C         4.006525        -0.503797         0.016576
 C         3.487647        -0.436593        -1.327245
 O         2.078382        -0.302774        -1.322589
 O         3.258358        -1.708343         0.628245
 C         2.325362        -0.699503         1.154034
 H        -0.279127        -0.005088         0.939208
 H        -0.157922         0.747880        -0.758790
 H        -0.247768        -1.080003        -0.496835
 H         2.335616         2.145316        -0.248903
 H         1.748568         1.917657         1.165128
 H         4.116402         0.631501         1.713881
 H         5.116904        -0.482625         0.164549
 H         3.956670         0.432219        -1.981340
 H         3.881288        -1.332445        -1.838896
 H         1.687567        -1.243967         1.886784
