19
Iteration:  3494charge 0 multiplicity 1
 C         0.083615         0.135246        -0.135808
 C         1.539857         0.006890        -0.048102
 C         2.187153         1.264180         0.471539
 C         3.274391         0.448850         1.019372
 C         3.999344        -0.423876         0.052733
 C         3.382348        -0.370152        -1.349651
 O         1.979815        -0.540248        -1.277375
 O         3.469881        -1.690694         0.647227
 C         2.432775        -0.830461         1.203275
 H        -0.439374        -0.326833         0.720131
 H        -0.239486         1.097775        -0.425048
 H        -0.133455        -0.786630        -0.909284
 H         2.558971         2.021057        -0.267407
 H         1.593927         1.601079         1.330949
 H         3.872655         0.899817         1.837923
 H         5.079268        -0.778929         0.039308
 H         3.519286         0.650933        -1.891333
 H         3.733927        -1.064854        -2.181342
 H         1.930437        -1.309889         2.077357
