19
Iteration:  3365
 C        -0.037279         0.010331        -0.123597
 C         1.550468         0.004734         0.025792
 C         2.181073         1.304299         0.469769
 C         3.366820         0.442156         1.117292
 C         4.003218        -0.553427         0.040018
 C         3.415356        -0.355004        -1.325819
 O         2.028710        -0.492037        -1.328234
 O         3.403707        -1.681735         0.574761
 C         2.435982        -0.730908         1.182153
 H        -0.480201         0.575314         0.605494
 H        -0.425386         0.275827        -1.061263
 H        -0.420306        -1.060817        -0.233569
 H         2.248865         2.139504        -0.343689
 H         1.566184         1.814889         1.278797
 H         4.187025         0.906278         1.765002
 H         5.173561        -0.442269         0.013058
 H         3.975050         0.615210        -1.771078
 H         3.810116        -1.130882        -2.010216
 H         1.923019        -1.304164         1.993745
