19
Iteration:  4190
 C         0.091789        -0.177402        -0.029363
 C         1.566734         0.035993        -0.011252
 C         2.214900         1.290130         0.438232
 C         3.379401         0.451322         1.074779
 C         4.012493        -0.532115         0.012664
 C         3.447514        -0.355360        -1.459141
 O         2.021036        -0.335898        -1.324712
 O         3.314553        -1.682762         0.708022
 C         2.325281        -0.751008         1.104671
 H        -0.350617         0.568360        -0.629376
 H        -0.300857        -1.082923        -0.337086
 H        -0.265579         0.216264         0.986814
 H         2.406959         2.071180        -0.220900
 H         1.728465         1.634792         1.333481
 H         3.955520         0.699638         1.929942
 H         5.044759        -0.704270         0.105151
 H         3.762867         0.722813        -1.790944
 H         3.796790        -1.128594        -2.246097
 H         1.857205        -1.156548         1.972934
