19
Iteration:  4507
 C         0.007228        -0.064019        -0.079500
 C         1.542826        -0.011860         0.009292
 C         2.237115         1.330280         0.472467
 C         3.369066         0.482168         1.113981
 C         4.001489        -0.455809         0.064378
 C         3.426688        -0.304230        -1.366260
 O         2.001040        -0.487414        -1.270217
 O         3.328143        -1.709359         0.492308
 C         2.439184        -0.805227         1.100521
 H        -0.213235         0.291847        -1.044272
 H        -0.411012        -1.070727         0.151473
 H        -0.356761         0.532894         0.791015
 H         2.648769         2.164139        -0.122481
 H         1.743921         1.712615         1.371573
 H         3.980767         0.879944         1.993972
 H         5.086712        -0.617739         0.142854
 H         3.749905         0.692506        -1.837206
 H         3.806705        -1.150702        -1.919664
 H         1.874389        -1.266115         1.939743
