19
Iteration:  3803
 C         0.035433         0.030650        -0.053918
 C         1.549160        -0.061268        -0.027122
 C         2.330174         1.241444         0.390376
 C         3.341678         0.374838         1.135837
 C         4.013833        -0.398969         0.013305
 C         3.436081        -0.286230        -1.375061
 O         2.003071        -0.574635        -1.294470
 O         3.355109        -1.654624         0.618444
 C         2.323083        -0.745582         1.130783
 H        -0.417812         1.029190         0.222179
 H        -0.436041        -0.371563        -1.016937
 H        -0.314941        -0.688609         0.630346
 H         2.498908         2.061331        -0.268868
 H         1.640878         1.669152         1.062915
 H         3.833242         0.960312         1.987584
 H         5.106222        -0.652321         0.022472
 H         3.670028         0.844153        -1.702526
 H         3.844116        -1.035827        -2.068253
 H         1.955618        -0.935851         2.180542
