19
Iteration:   989
 C         0.040057        -0.050198        -0.013245
 C         1.541350        -0.026241        -0.073266
 C         2.241015         1.296049         0.265504
 C         3.312611         0.488691         1.095585
 C         4.070830        -0.487198         0.096976
 C         3.473948        -0.284356        -1.268767
 O         2.042476        -0.542031        -1.263311
 O         3.291161        -1.649479         0.582696
 C         2.378594        -0.796574         1.158350
 H        -0.366971         0.106801         1.031569
 H        -0.493225         0.801386        -0.584724
 H        -0.343687        -0.997741        -0.460281
 H         2.677714         1.919498        -0.548891
 H         1.489757         2.010199         0.810560
 H         3.922798         0.854880         1.892935
 H         5.206838        -0.626298         0.247950
 H         3.640124         0.662797        -1.653438
 H         3.848515        -0.940893        -2.069796
 H         1.842805        -1.334597         1.897128
