19
Iteration:    71
 C         0.104721        -0.164893        -0.110797
 C         1.505345         0.050475         0.024546
 C         2.174669         1.338597         0.473719
 C         3.341712         0.499271         1.009099
 C         4.023849        -0.573281         0.040675
 C         3.429366        -0.413765        -1.337683
 O         1.995027        -0.376217        -1.253964
 O         3.376665        -1.665102         0.637020
 C         2.391656        -0.747936         1.088526
 H        -0.372635        -0.159509         0.951886
 H        -0.329260         0.591801        -0.853994
 H         0.064606        -1.193311        -0.580796
 H         2.434755         2.167417        -0.421280
 H         1.768423         1.937937         1.317001
 H         3.969789         0.863805         1.823454
 H         5.084876        -0.561016         0.157020
 H         3.859670         0.591790        -1.728816
 H         3.664975        -1.260500        -2.130966
 H         1.713153        -1.098677         1.889307
