19
Iteration:  2939charge 0 multiplicity 1
 C         0.046423        -0.074889        -0.015964
 C         1.563151        -0.075786         0.033173
 C         2.219867         1.344035         0.387161
 C         3.337664         0.442693         1.143370
 C         3.968808        -0.513626         0.032721
 C         3.561633        -0.250135        -1.390019
 O         2.036671        -0.452967        -1.310555
 O         3.270491        -1.705443         0.615856
 C         2.382991        -0.729458         1.125180
 H        -0.516552        -0.127310         0.913134
 H        -0.384742         0.597599        -0.702481
 H        -0.149308        -0.938793        -0.739902
 H         2.519408         1.953217        -0.500759
 H         1.644520         1.883335         1.124877
 H         3.982053         0.765820         1.965903
 H         5.021724        -0.728710        -0.107395
 H         3.774379         0.659726        -1.813247
 H         3.772132        -1.103836        -2.065003
 H         1.917597        -1.062090         2.062202
