19
Iteration:    70charge 0 multiplicity 1
 C         0.103770        -0.164251        -0.118434
 C         1.512397         0.042518         0.025957
 C         2.169533         1.343760         0.485225
 C         3.343851         0.501644         1.019394
 C         4.031165        -0.570535         0.043600
 C         3.428100        -0.423161        -1.346877
 O         1.987179        -0.369510        -1.264949
 O         3.378874        -1.665634         0.643148
 C         2.395136        -0.747963         1.085554
 H        -0.366318        -0.166093         0.969245
 H        -0.351304         0.594592        -0.864978
 H         0.064069        -1.144618        -0.566343
 H         2.433374         2.138453        -0.410909
 H         1.762787         1.918079         1.291048
 H         3.961652         0.855261         1.798566
 H         5.065876        -0.552961         0.155983
 H         3.840769         0.567308        -1.720798
 H         3.653878        -1.277737        -2.116697
 H         1.732537        -1.073608         1.889317
