19
Iteration:   328charge 0 multiplicity 1
 C        -0.039217        -0.200338        -0.075511
 C         1.511299         0.036589        -0.066210
 C         2.261431         1.305840         0.397906
 C         3.404593         0.511521         1.118109
 C         4.034319        -0.555803         0.042569
 C         3.469137        -0.313801        -1.329750
 O         2.071216        -0.427958        -1.292656
 O         3.243371        -1.664427         0.582002
 C         2.436987        -0.738574         1.171427
 H        -0.525299         0.074795         0.863993
 H        -0.541781         0.302320        -0.885677
 H        -0.183305        -1.232047        -0.054167
 H         2.548078         2.084529        -0.235417
 H         1.674432         1.904439         1.143467
 H         3.993407         0.809268         1.866722
 H         5.124253        -0.693473         0.108729
 H         3.720117         0.655636        -1.693922
 H         3.792190        -0.949403        -2.055670
 H         1.884928        -0.944538         2.012719
