19
Iteration:   692
 C         0.006247        -0.007934        -0.112673
 C         1.532705        -0.008145         0.008924
 C         2.183821         1.345150         0.367977
 C         3.292643         0.440163         1.026271
 C         4.028526        -0.520007         0.115482
 C         3.413722        -0.300566        -1.338131
 O         2.043025        -0.490084        -1.223761
 O         3.473215        -1.722647         0.628629
 C         2.380802        -0.787122         1.120751
 H        -0.639532         0.110629         0.779978
 H        -0.275295         0.881061        -0.787350
 H        -0.352966        -0.930131        -0.702381
 H         2.377100         2.183109        -0.291658
 H         1.568158         1.777176         1.205349
 H         3.974806         0.914856         1.803821
 H         5.167638        -0.571199         0.166335
 H         3.712101         0.527327        -1.987721
 H         3.900514        -1.205623        -2.049528
 H         1.714459        -1.148900         1.933579
