19
Iteration:  2520charge 0 multiplicity 1
 C        -0.014917        -0.183516        -0.100750
 C         1.492074         0.137137        -0.055118
 C         2.207624         1.330278         0.546825
 C         3.315805         0.518435         1.111842
 C         4.124327        -0.671706        -0.047910
 C         3.485091        -0.450671        -1.373707
 O         2.061536        -0.327272        -1.326248
 O         3.294741        -1.716838         0.635622
 C         2.396527        -0.622146         1.174782
 H        -0.324777         0.331285         0.907016
 H        -0.389161         0.122703        -0.986569
 H        -0.113115        -1.283611        -0.270173
 H         2.380061         2.179034        -0.153802
 H         1.516449         1.907402         1.276049
 H         3.981159         0.700484         1.975384
 H         5.225519        -0.820309        -0.108062
 H         3.815740         0.443520        -1.851456
 H         3.718269        -1.394706        -2.027388
 H         1.873275        -1.088050         2.022542
