19
Iteration:  3772charge 0 multiplicity 1
 C        -0.014055         0.021678         0.015356
 C         1.512824        -0.008834         0.002901
 C         2.198006         1.356026         0.350380
 C         3.263503         0.469294         1.022453
 C         4.031315        -0.537244         0.023163
 C         3.571874        -0.389048        -1.300772
 O         2.022944        -0.434755        -1.278694
 O         3.432151        -1.719272         0.625131
 C         2.338500        -0.849436         1.093053
 H        -0.500381         0.883260         0.588740
 H        -0.417943        -0.006902        -1.077999
 H        -0.318319        -0.802028         0.519239
 H         2.421853         1.929126        -0.559691
 H         1.588222         1.804968         1.172068
 H         3.919589         0.996310         1.789719
 H         5.164538        -0.510510         0.096151
 H         3.792441         0.655132        -1.744269
 H         3.759296        -1.116310        -2.148955
 H         1.951564        -1.045658         2.149258
