19
Iteration:  1084
 C         0.069787        -0.202965         0.064182
 C         1.551186         0.039940        -0.094567
 C         2.234037         1.408535         0.348988
 C         3.281449         0.453615         1.059934
 C         4.050191        -0.554571         0.118242
 C         3.470603        -0.367576        -1.274321
 O         2.100217        -0.358139        -1.349602
 O         3.289749        -1.730411         0.598270
 C         2.298709        -0.706617         1.082982
 H        -0.307202         0.205076         0.955190
 H        -0.603686         0.211533        -0.782774
 H        -0.047962        -1.307904         0.059965
 H         2.552929         2.142359        -0.294758
 H         1.557729         1.927649         1.045348
 H         3.858822         0.785602         1.846469
 H         5.161460        -0.523917         0.161800
 H         3.994794         0.446960        -1.902547
 H         3.817711        -1.198674        -1.906179
 H         1.766680        -1.035031         1.975105
