19
Iteration:  1827charge 0 multiplicity 1
 C        -0.030396        -0.218204        -0.034699
 C         1.522801        -0.005168        -0.075538
 C         2.265713         1.387495         0.388713
 C         3.407636         0.519056         1.082288
 C         4.073551        -0.597962         0.081529
 C         3.414041        -0.381222        -1.319222
 O         2.091225        -0.369121        -1.327670
 O         3.279343        -1.716383         0.628673
 C         2.341247        -0.660955         1.149398
 H        -0.544158         0.290521         0.704151
 H        -0.474511         0.273164        -0.991816
 H        -0.289266        -1.293111        -0.116843
 H         2.587431         1.991972        -0.502455
 H         1.843414         2.039397         1.260208
 H         3.915376         0.960133         1.983530
 H         5.122249        -0.721810         0.136762
 H         3.849650         0.623068        -1.788337
 H         3.805258        -1.112752        -1.980240
 H         1.783419        -1.119741         2.014772
