19
Iteration:  2033charge 0 multiplicity 1
 C        -0.068623         0.035122        -0.176279
 C         1.545036        -0.011322        -0.000575
 C         2.184491         1.308622         0.508686
 C         3.349966         0.442131         1.022864
 C         3.988951        -0.473884        -0.001069
 C         3.429036        -0.457465        -1.307591
 O         2.093815        -0.472078        -1.232048
 O         3.394133        -1.661441         0.557576
 C         2.455451        -0.786955         1.178655
 H        -0.485953         0.052787         0.893012
 H        -0.382611         0.985745        -0.720979
 H        -0.604069        -0.801538        -0.708962
 H         2.185787         2.102970        -0.231780
 H         1.833195         1.661600         1.438798
 H         3.910736         0.894397         1.884047
 H         5.068684        -0.536233         0.057175
 H         3.713145         0.427616        -1.772596
 H         3.824525        -1.132131        -2.045624
 H         1.986349        -1.119597         2.106705
