19
Iteration:  4995charge 0 multiplicity 1
 C        -0.023063         0.085596        -0.029508
 C         1.497336        -0.047692        -0.075467
 C         2.228114         1.214721         0.392643
 C         3.272857         0.385864         1.109923
 C         4.079036        -0.439906         0.059181
 C         3.516998        -0.317142        -1.352329
 O         1.982138        -0.466013        -1.274391
 O         3.468028        -1.678579         0.594409
 C         2.336405        -0.811585         1.104383
 H        -0.254864         1.105465        -0.437097
 H        -0.407539        -0.808621        -0.459288
 H        -0.470610        -0.023793         1.055110
 H         2.523328         1.953634        -0.389725
 H         1.637618         1.700667         1.192776
 H         3.878700         0.763299         1.969426
 H         5.199884        -0.406751         0.035582
 H         3.429456         0.663605        -1.861416
 H         3.845476        -1.224818        -1.986339
 H         1.989531        -1.173465         2.057285
