19
Iteration:  2027
 C        -0.077633         0.044646        -0.132973
 C         1.494290         0.014644        -0.013439
 C         2.185530         1.299257         0.512483
 C         3.354933         0.461310         1.014194
 C         4.049658        -0.475031         0.027812
 C         3.435323        -0.428232        -1.342111
 O         2.100447        -0.507804        -1.222640
 O         3.378775        -1.704541         0.570670
 C         2.438599        -0.765703         1.133782
 H        -0.493167         0.119261         0.831174
 H        -0.363460         0.867792        -0.840172
 H        -0.492474        -0.827482        -0.639244
 H         2.255437         2.224537        -0.111406
 H         1.634539         1.797738         1.424322
 H         3.944377         0.816795         1.880294
 H         5.156482        -0.403435        -0.052679
 H         3.802493         0.655927        -1.752438
 H         3.774741        -1.315066        -1.947190
 H         2.012333        -1.276992         2.047151
