19
Iteration:  4861
 C         0.040766         0.011650        -0.056189
 C         1.543632         0.051674        -0.029742
 C         2.226748         1.271504         0.502044
 C         3.339082         0.459596         1.061561
 C         4.015322        -0.502103         0.002662
 C         3.455535        -0.327573        -1.380513
 O         2.008556        -0.472799        -1.281543
 O         3.425762        -1.714793         0.604429
 C         2.340776        -0.791948         1.153828
 H        -0.517675         0.852690        -0.735670
 H        -0.332877        -0.917390        -0.538400
 H        -0.364371        -0.032880         0.942463
 H         2.428110         2.070887        -0.194901
 H         1.546419         1.571681         1.302231
 H         3.927518         0.565331         1.912905
 H         5.092558        -0.385477         0.002001
 H         3.735589         0.647010        -1.879939
 H         3.866713        -1.159860        -1.973712
 H         1.594965        -1.206921         1.759663
