19
Iteration:  1633
 C         0.100923        -0.160990        -0.000922
 C         1.543944         0.061303        -0.077710
 C         2.228559         1.384019         0.403458
 C         3.291381         0.430497         1.039243
 C         4.004177        -0.600547         0.086530
 C         3.473335        -0.428642        -1.318837
 O         2.055745        -0.318803        -1.332642
 O         3.356553        -1.686400         0.717839
 C         2.307269        -0.724917         1.030976
 H        -0.330866         0.399799         0.758525
 H        -0.384368         0.116948        -1.002636
 H        -0.218445        -1.206518         0.237156
 H         2.439449         2.059244        -0.433024
 H         1.556665         1.856204         1.171973
 H         4.040883         0.782720         1.820947
 H         5.130087        -0.551423         0.173636
 H         3.798099         0.637270        -1.758867
 H         3.802415        -1.256178        -2.090485
 H         1.638813        -1.200974         1.813632
