19
Iteration:   188
 C         0.044465        -0.140412        -0.136494
 C         1.535497         0.021932         0.096965
 C         2.119391         1.423189         0.506254
 C         3.317058         0.507322         0.979226
 C         4.000523        -0.578386        -0.029138
 C         3.481413        -0.410028        -1.398228
 O         2.051909        -0.382840        -1.282056
 O         3.381936        -1.730688         0.668467
 C         2.402310        -0.715180         1.169702
 H        -0.588288        -0.341466         0.766536
 H        -0.354863         0.682777        -0.772359
 H         0.034776        -1.011578        -0.616729
 H         2.255899         2.100674        -0.220351
 H         1.624975         1.904006         1.323480
 H         4.011666         0.707133         1.748335
 H         5.081463        -0.690809        -0.000052
 H         3.987439         0.514948        -1.785765
 H         3.760835        -1.144287        -2.120032
 H         1.899872        -1.124999         2.044109
