19
Iteration:  1939charge 0 multiplicity 1
 C         0.059354        -0.180711        -0.070125
 C         1.540814         0.063100        -0.047283
 C         2.217008         1.363092         0.452723
 C         3.398088         0.508338         1.029355
 C         3.968629        -0.536551         0.072098
 C         3.524340        -0.352004        -1.395286
 O         2.047337        -0.388004        -1.307820
 O         3.232411        -1.765242         0.618477
 C         2.398317        -0.702609         1.200114
 H        -0.299201         0.099857         0.844077
 H        -0.487238         0.302023        -0.933201
 H        -0.145328        -1.241291        -0.186354
 H         2.300817         2.224330        -0.210792
 H         1.692642         1.757964         1.432542
 H         4.035236         0.840085         1.865888
 H         5.053774        -0.528116         0.156683
 H         3.906524         0.394324        -2.121858
 H         3.779959        -1.190957        -2.058891
 H         1.869185        -1.077418         2.146304
