19
Iteration:  4670charge 0 multiplicity 1
 C         0.005465         0.089291        -0.033644
 C         1.506746        -0.054518         0.008941
 C         2.252259         1.284046         0.427572
 C         3.282843         0.411769         1.110336
 C         4.103867        -0.339731         0.012191
 C         3.434259        -0.314960        -1.282527
 O         2.025635        -0.525069        -1.269359
 O         3.380458        -1.675024         0.558788
 C         2.387129        -0.886744         1.020327
 H        -0.200424         1.094855        -0.391752
 H        -0.516626        -0.617379        -0.806207
 H        -0.428691        -0.235703         1.069328
 H         2.419229         1.855072        -0.489237
 H         1.700516         1.758383         1.221467
 H         3.878480         0.709080         2.055229
 H         5.149943        -0.690668         0.063655
 H         3.765442         0.547586        -1.855751
 H         3.663833        -1.172249        -1.814728
 H         1.865697        -1.240308         1.961946
