19
Iteration:  3476charge 0 multiplicity 1
 C        -0.087692         0.005000        -0.140392
 C         1.528465        -0.026989         0.031530
 C         2.275511         1.325876         0.454852
 C         3.352540         0.410908         1.123883
 C         4.059167        -0.425802         0.020177
 C         3.445544        -0.364059        -1.382397
 O         2.017464        -0.539905        -1.244179
 O         3.426158        -1.666710         0.578742
 C         2.343224        -0.755507         1.141508
 H        -0.588425        -0.103731         0.789047
 H        -0.273277         1.055490        -0.458712
 H        -0.519457        -0.721118        -0.885447
 H         2.581282         1.965308        -0.411704
 H         1.651474         1.916432         1.170169
 H         3.992877         0.611562         2.001020
 H         5.194421        -0.368243        -0.038286
 H         3.748630         0.552107        -1.834163
 H         3.676121        -1.287848        -1.873621
 H         1.903077        -1.272716         2.006468
