19
Iteration:  4096charge 0 multiplicity 1
 C         0.010259         0.024141        -0.010423
 C         1.471775         0.024349        -0.054386
 C         2.223949         1.224986         0.453391
 C         3.302841         0.379196         1.099137
 C         4.019128        -0.506089         0.067853
 C         3.457931        -0.357010        -1.348139
 O         2.030616        -0.441285        -1.293420
 O         3.504398        -1.647356         0.595811
 C         2.329867        -0.800776         1.024915
 H        -0.416959         0.580923        -0.864857
 H        -0.493339        -0.999096        -0.034539
 H        -0.200838         0.609544         0.876043
 H         2.281353         2.097535        -0.357123
 H         1.564798         1.530875         1.333035
 H         3.786171         0.970400         1.925700
 H         5.167017        -0.582593        -0.003142
 H         3.743800         0.631118        -1.686689
 H         3.871624        -1.105444        -1.996826
 H         1.816005        -1.106265         1.984186
