19
Iteration:  2756charge 0 multiplicity 1
 C         0.025094         0.062017        -0.095184
 C         1.540884        -0.094811        -0.020873
 C         2.233532         1.340323         0.508243
 C         3.236326         0.439201         1.080417
 C         3.997729        -0.483846         0.000890
 C         3.421297        -0.344491        -1.391785
 O         2.022398        -0.446711        -1.323555
 O         3.491033        -1.721967         0.649704
 C         2.384166        -0.837011         1.197507
 H        -0.456362         0.141073         0.819081
 H        -0.328210         0.926508        -0.834114
 H        -0.528518        -0.657132        -0.651522
 H         2.324240         2.026674        -0.345548
 H         1.568417         1.898953         1.153208
 H         3.949055         0.722008         1.875427
 H         5.167277        -0.485435        -0.104064
 H         3.911534         0.562612        -1.661225
 H         3.848843        -1.084662        -2.037749
 H         1.728577        -1.256400         2.026718
