19
Iteration:  3648charge 0 multiplicity 1
 C         0.029843         0.075258        -0.045387
 C         1.519488        -0.025236        -0.069582
 C         2.264469         1.387456         0.456441
 C         3.300645         0.448024         1.121483
 C         4.055644        -0.443558         0.069551
 C         3.466750        -0.385339        -1.348504
 O         1.928349        -0.622353        -1.337438
 O         3.449380        -1.644610         0.612945
 C         2.358334        -0.798861         1.136481
 H        -0.416506         0.046022         0.906694
 H        -0.282799         0.913364        -0.584011
 H        -0.264167        -0.843065        -0.671155
 H         2.531224         2.072245        -0.327116
 H         1.498911         1.840992         0.998839
 H         3.841968         0.664548         2.061207
 H         5.142923        -0.487341         0.122995
 H         3.674932         0.551268        -1.944926
 H         3.846967        -1.120238        -1.954548
 H         1.904807        -1.385047         1.944337
