19
Iteration:   801
 C         0.054131        -0.157299        -0.195287
 C         1.554773        -0.034735         0.006106
 C         2.225919         1.405894         0.484354
 C         3.304854         0.521296         1.044934
 C         3.971595        -0.594890        -0.025438
 C         3.433020        -0.360544        -1.388335
 O         2.002252        -0.418643        -1.260395
 O         3.382479        -1.686510         0.729248
 C         2.417763        -0.716978         1.169961
 H        -0.483818         0.350782         0.570728
 H        -0.232223         0.454122        -1.114887
 H        -0.158687        -1.209335        -0.474127
 H         2.407660         2.180533        -0.181645
 H         1.643677         1.736140         1.357012
 H         3.905002         0.843532         1.896777
 H         5.087419        -0.774623        -0.030624
 H         3.822819         0.561664        -1.990834
 H         3.795337        -1.270287        -1.979483
 H         1.974593        -0.864583         2.101793
