19
Iteration:  2779
 C        -0.028239        -0.012869        -0.086355
 C         1.508916         0.028382        -0.036839
 C         2.205744         1.257110         0.462450
 C         3.356647         0.423304         1.053663
 C         4.124820        -0.500371         0.085517
 C         3.521858        -0.383610        -1.344095
 O         1.966246        -0.400961        -1.266081
 O         3.369370        -1.672167         0.568482
 C         2.373340        -0.773065         1.131664
 H        -0.438514         0.098453         0.902578
 H        -0.600212         0.633371        -0.881016
 H        -0.345948        -0.948201        -0.430574
 H         2.376375         2.067521        -0.237055
 H         1.494463         1.671459         1.165963
 H         3.936790         0.790031         1.913657
 H         5.253142        -0.471010         0.037121
 H         3.924811         0.466697        -1.792302
 H         3.907940        -1.216227        -1.836795
 H         1.828631        -1.308158         1.933009
