19
Iteration:  2308charge 0 multiplicity 1
 C         0.017091         0.001177        -0.075330
 C         1.543966         0.006233        -0.022099
 C         2.279808         1.252076         0.376785
 C         3.279706         0.396843         1.079355
 C         3.994934        -0.525647         0.021020
 C         3.475514        -0.331198        -1.400380
 O         2.019570        -0.423478        -1.277976
 O         3.371817        -1.643138         0.671056
 C         2.396845        -0.811634         1.191047
 H        -0.359232         0.545085         0.696252
 H        -0.476840         0.318153        -1.046173
 H        -0.361892        -1.000799         0.031565
 H         2.644220         2.076815        -0.305512
 H         1.564873         1.780241         1.122163
 H         4.100985         0.728656         1.833396
 H         5.050306        -0.510993         0.030386
 H         3.668670         0.726889        -1.794812
 H         3.718047        -1.119112        -2.088936
 H         1.799418        -1.256259         1.996140
