19
Iteration:  1294charge 0 multiplicity 1
 C         0.068965         0.019180        -0.073441
 C         1.520634        -0.057091         0.057421
 C         2.158299         1.248955         0.373716
 C         3.285808         0.472909         1.093521
 C         4.022019        -0.426785        -0.025321
 C         3.444735        -0.505860        -1.354475
 O         2.017442        -0.273641        -1.389225
 O         3.450638        -1.686015         0.713728
 C         2.385654        -0.843567         1.193250
 H        -0.468001         0.636015         0.720420
 H        -0.046315         0.630403        -1.155538
 H        -0.389228        -1.035848        -0.159212
 H         2.209455         2.019266        -0.352656
 H         1.445018         1.674477         1.160817
 H         3.962814         0.785272         1.915960
 H         5.172705        -0.575206         0.034418
 H         3.907979         0.175864        -1.976954
 H         3.768554        -1.521762        -1.763215
 H         1.780668        -1.243071         2.015598
