19
Iteration:  1242
 C         0.115992        -0.207538        -0.076229
 C         1.570957        -0.005703        -0.017392
 C         2.280315         1.357394         0.389205
 C         3.364143         0.483321         1.072073
 C         3.998460        -0.575072         0.055162
 C         3.448319        -0.264477        -1.350379
 O         2.050893        -0.478181        -1.252391
 O         3.193808        -1.700975         0.587355
 C         2.358249        -0.651733         1.163238
 H        -0.350101         0.387421         0.754664
 H        -0.373316         0.202535        -0.928252
 H        -0.083781        -1.280747        -0.141755
 H         2.668635         1.946081        -0.488757
 H         1.682261         1.969438         1.039848
 H         3.968076         0.800201         2.002957
 H         5.066909        -0.886374         0.181110
 H         3.601327         0.844526        -1.707444
 H         3.904326        -0.828871        -2.173147
 H         1.822254        -0.846817         2.079859
