19
Iteration:   755charge 0 multiplicity 1
 C         0.035705        -0.247744        -0.006081
 C         1.548750         0.006729        -0.033619
 C         2.205720         1.441151         0.354064
 C         3.305731         0.439585         1.004168
 C         4.042935        -0.572958         0.073014
 C         3.485531        -0.401865        -1.325478
 O         2.098215        -0.371392        -1.229422
 O         3.290551        -1.697393         0.597692
 C         2.324123        -0.676836         1.118175
 H        -0.337674         0.383269         0.853695
 H        -0.443669         0.378020        -0.815534
 H        -0.169755        -1.327209        -0.256412
 H         2.623216         2.018811        -0.460457
 H         1.622248         2.002126         1.161122
 H         3.974003         0.745758         1.901030
 H         5.204146        -0.518904         0.339111
 H         3.899902         0.662587        -1.766873
 H         3.763126        -1.042421        -2.194621
 H         1.723757        -0.981455         1.942234
