19
Iteration:  1536charge 0 multiplicity 1
 C         0.017545        -0.076688        -0.081964
 C         1.555806         0.009049        -0.021859
 C         2.125016         1.322976         0.440845
 C         3.337519         0.442311         1.012910
 C         4.058269        -0.487908         0.006281
 C         3.463741        -0.482073        -1.428041
 O         2.043518        -0.306861        -1.307315
 O         3.388457        -1.703892         0.789079
 C         2.398728        -0.768069         1.134979
 H        -0.580542        -0.168236         0.735585
 H        -0.171137         0.853654        -0.642292
 H        -0.349723        -0.860403        -0.752450
 H         2.320774         2.169882        -0.326503
 H         1.601692         1.757227         1.341324
 H         3.900779         0.757675         1.937916
 H         5.193379        -0.599066         0.133317
 H         3.890975         0.282030        -2.093110
 H         3.475885        -1.457244        -2.008389
 H         1.794462        -0.996932         2.019340
