19
Iteration:  1893charge 0 multiplicity 1
 C        -0.080410         0.027472        -0.124030
 C         1.471906         0.024922        -0.009319
 C         2.251855         1.320494         0.373692
 C         3.275526         0.415693         1.012793
 C         4.130935        -0.474274         0.120076
 C         3.445034        -0.376556        -1.350961
 O         2.015357        -0.475308        -1.269138
 O         3.450255        -1.726296         0.665828
 C         2.391993        -0.810741         1.152140
 H        -0.505011        -0.029510         0.799657
 H        -0.462455         0.898329        -0.676411
 H        -0.398219        -0.864463        -0.669927
 H         2.490480         2.042611        -0.415707
 H         1.636938         1.835000         1.206331
 H         3.855728         0.917194         1.832723
 H         5.185289        -0.525545         0.111140
 H         3.733567         0.556804        -1.925278
 H         3.923961        -1.012986        -2.035053
 H         1.913911        -1.044327         2.142107
