19
Iteration:  3353
 C         0.000865         0.023550        -0.115352
 C         1.480552        -0.011063        -0.090348
 C         2.235386         1.296464         0.477493
 C         3.349470         0.489972         1.005318
 C         4.013918        -0.483471         0.054511
 C         3.453265        -0.305262        -1.325539
 O         1.989152        -0.529834        -1.291749
 O         3.437246        -1.730768         0.644105
 C         2.404605        -0.796357         1.140043
 H        -0.346875         0.419163         0.793531
 H        -0.224994         0.678414        -0.862710
 H        -0.466244        -1.015732        -0.108658
 H         2.421231         2.237863        -0.165956
 H         1.626716         1.530464         1.396642
 H         3.894273         0.809444         1.920700
 H         5.174677        -0.633002         0.088768
 H         3.629894         0.787294        -1.712468
 H         3.848475        -1.095383        -2.003111
 H         1.829134        -1.043483         2.063397
