19
Iteration:  4354
 C        -0.081293        -0.060821        -0.055855
 C         1.510213         0.043600        -0.031868
 C         2.232730         1.328809         0.505161
 C         3.355832         0.419777         1.087845
 C         4.082012        -0.502874        -0.003221
 C         3.478746        -0.313345        -1.360614
 O         2.002544        -0.416739        -1.296168
 O         3.384238        -1.731967         0.585081
 C         2.420912        -0.779533         1.106335
 H        -0.452493         0.043581        -1.046187
 H        -0.221973        -1.100943         0.212141
 H        -0.583484         0.703119         0.631627
 H         2.233676         2.273787        -0.136788
 H         1.698481         1.513470         1.501574
 H         4.053797         0.671662         1.888934
 H         5.144257        -0.722832         0.046997
 H         3.713616         0.672078        -1.736401
 H         3.875237        -1.084000        -2.102173
 H         1.826036        -1.138960         1.946093
