19
Iteration:  1148
 C        -0.015308        -0.011573        -0.190146
 C         1.508465        -0.034049         0.046675
 C         2.179890         1.290513         0.454758
 C         3.362931         0.507625         1.063374
 C         4.091545        -0.503171         0.103291
 C         3.403570        -0.413654        -1.319971
 O         1.983397        -0.423459        -1.295424
 O         3.468528        -1.691303         0.631078
 C         2.381721        -0.782512         1.131572
 H        -0.622368         0.342278         0.664518
 H        -0.254571         0.835220        -0.971631
 H        -0.222201        -0.969008        -0.685292
 H         2.423640         1.940526        -0.400764
 H         1.577813         1.757667         1.224722
 H         3.996078         1.047579         1.742873
 H         5.144985        -0.675825         0.119813
 H         3.782345         0.439528        -1.839454
 H         3.669208        -1.293977        -1.915779
 H         1.786997        -1.149545         2.027155
