19
Iteration:   840charge 0 multiplicity 1
 C         0.222601         0.636675         0.250544
 C         1.590650         0.056985         0.118456
 C         2.153117        -0.735522         1.336735
 C         3.608259        -1.057205         1.053530
 C         4.131347        -0.369248        -0.243123
 O         3.979335         1.007361         0.138825
 C         2.662328         0.977428        -0.535857
 C         3.002656        -0.224223        -1.346612
 O         1.874286        -0.952106        -0.947178
 H         0.081317         1.029268         1.266152
 H         0.165158         1.547041        -0.309103
 H        -0.612017         0.058130        -0.010517
 H         2.021120        -0.281537         2.319669
 H         1.476068        -1.614257         1.184850
 H         4.253793        -0.786938         1.952866
 H         3.864634        -2.059513         1.097434
 H         5.155555        -0.602239        -0.610526
 H         2.273402         1.979480        -0.853666
 H         3.230401        -0.349616        -2.381124
