19
Iteration:  2500
 C         0.228661         0.577293         0.181014
 C         1.577103        -0.039311         0.194663
 C         2.146761        -0.718397         1.373198
 C         3.624911        -1.169912         0.906261
 C         4.150222        -0.338591        -0.239270
 O         4.007307         1.098764         0.088707
 C         2.658134         1.063525        -0.437459
 C         3.036034        -0.176837        -1.243843
 O         1.805995        -0.921250        -0.932156
 H         0.011631         1.196134         1.140816
 H         0.084692         1.176857        -0.708837
 H        -0.567978        -0.280839         0.174991
 H         2.142319        -0.091700         2.224881
 H         1.576321        -1.682782         1.454108
 H         4.317877        -1.182656         1.741695
 H         3.525823        -2.133473         0.545323
 H         5.220946        -0.737182        -0.440652
 H         2.249714         1.962030        -0.855139
 H         3.381954        -0.209109        -2.266298
