19
Iteration:  4013
 C         0.140958         0.579960         0.327129
 C         1.594045         0.162935         0.095036
 C         2.160488        -0.686037         1.339393
 C         3.600091        -1.247420         1.022633
 C         4.193075        -0.460247        -0.072220
 O         3.984024         1.120498         0.091234
 C         2.702531         0.991075        -0.565789
 C         3.066864        -0.254682        -1.331368
 O         1.830718        -0.827833        -1.027523
 H         0.006927         0.984941         1.334217
 H        -0.279598         1.153873        -0.518563
 H        -0.471158        -0.345144         0.257430
 H         2.143081        -0.075989         2.208083
 H         1.442755        -1.506692         1.456582
 H         4.263850        -1.295522         1.881011
 H         3.543044        -2.292932         0.707471
 H         5.249363        -0.640622        -0.360651
 H         2.427209         1.890465        -1.058604
 H         3.163303        -0.346117        -2.378663
