19
Iteration:  1203
 C         0.064265         0.499455         0.162260
 C         1.664246         0.135582         0.121728
 C         2.203398        -0.610177         1.420485
 C         3.618423        -1.186237         0.949420
 C         4.162970        -0.387197        -0.194032
 O         4.010783         1.028549         0.191703
 C         2.752039         1.027844        -0.561166
 C         2.993218        -0.235428        -1.342446
 O         1.775382        -0.903133        -0.919873
 H        -0.076669         1.161870         0.939958
 H        -0.238220         0.944007        -0.802964
 H        -0.339917        -0.436760         0.465546
 H         2.206204         0.112178         2.165433
 H         1.628272        -1.376183         1.835659
 H         4.258399        -0.976813         1.840454
 H         3.492130        -2.161037         0.644322
 H         5.174383        -0.613424        -0.530893
 H         2.563294         2.115022        -0.927287
 H         3.268458        -0.473624        -2.324366
