19
Iteration:  4671
 C         0.186568         0.538061         0.239864
 C         1.613232         0.107727         0.134956
 C         2.176864        -0.656016         1.367458
 C         3.579820        -1.292180         1.004933
 C         4.207971        -0.306795        -0.063859
 O         4.012377         1.068452         0.050348
 C         2.624460         1.032180        -0.537246
 C         3.101018        -0.243384        -1.297813
 O         1.746881        -0.868102        -0.992635
 H         0.141500         1.594851         0.601520
 H        -0.237754         0.471422        -0.750817
 H        -0.314655        -0.065823         0.970650
 H         2.163899         0.018220         2.310573
 H         1.476360        -1.448459         1.532849
 H         4.332602        -1.603067         1.753946
 H         3.399590        -2.169130         0.418319
 H         5.271025        -0.562143        -0.352815
 H         2.493660         2.009784        -0.942275
 H         3.263352        -0.374245        -2.317369
