19
Iteration:  2448
 C         0.150025         0.443248         0.271533
 C         1.623689        -0.009543         0.074442
 C         2.318129        -0.556949         1.365503
 C         3.633967        -1.233222         1.004026
 C         4.167530        -0.330314        -0.147090
 O         3.918636         1.074541         0.269093
 C         2.711896         0.991285        -0.555202
 C         3.044155        -0.306003        -1.315807
 O         1.697997        -0.744296        -1.155052
 H         0.246097         0.977784         1.252932
 H        -0.294407         0.975077        -0.501243
 H        -0.536912        -0.326520         0.531225
 H         2.665240         0.338424         1.976934
 H         1.569862        -1.133005         2.050101
 H         4.342981        -1.392807         1.854030
 H         3.452978        -2.328173         0.660987
 H         5.155519        -0.746235        -0.389528
 H         2.361600         1.882239        -1.005437
 H         3.390459        -0.279361        -2.301536
