19
Iteration:  4428charge 0 multiplicity 1
 C         0.165863         0.532367         0.215298
 C         1.659130         0.115738         0.113457
 C         2.315294        -0.525440         1.370792
 C         3.668955        -1.217015         1.003247
 C         4.085103        -0.425684        -0.216643
 O         3.853645         0.926735         0.249075
 C         2.679636         1.004992        -0.556886
 C         3.048403        -0.257196        -1.334267
 O         1.782708        -0.839750        -1.034607
 H         0.046508         1.215851         1.050411
 H         0.019694         1.109280        -0.687976
 H        -0.566269        -0.311931         0.078982
 H         2.503958         0.311402         2.188596
 H         1.484771        -1.112182         1.831873
 H         4.287385        -0.929351         1.961019
 H         3.721935        -2.331570         0.950216
 H         5.230153        -0.568662        -0.412924
 H         2.322064         2.031717        -0.756800
 H         3.312008        -0.317642        -2.448747
