19
Iteration:  2215charge 0 multiplicity 1
 C         0.211651         0.562145         0.344308
 C         1.644442         0.059070         0.158561
 C         2.185487        -0.727542         1.363908
 C         3.601973        -1.283737         1.019824
 C         4.191504        -0.291728        -0.083307
 O         3.948609         1.173680         0.103326
 C         2.676946         1.069701        -0.654831
 C         3.071467        -0.317119        -1.309906
 O         1.734341        -0.856973        -1.072115
 H         0.296646         1.316194         1.067725
 H        -0.152758         0.830655        -0.620246
 H        -0.531450        -0.138085         0.748476
 H         2.436464        -0.212755         2.261779
 H         1.416534        -1.584031         1.501330
 H         4.132205        -1.289409         2.007190
 H         3.725194        -2.359805         0.552424
 H         5.250368        -0.549366        -0.344485
 H         2.238451         1.970995        -1.076657
 H         3.274604        -0.663461        -2.336236
