19
Iteration:  1429
 C         0.150301         0.577664         0.170446
 C         1.624445         0.106083         0.118783
 C         2.212827        -0.608933         1.341834
 C         3.650391        -1.121236         1.003775
 C         4.116591        -0.385988        -0.194792
 O         3.965776         0.985798         0.206648
 C         2.748716         1.055762        -0.524255
 C         3.015910        -0.261026        -1.336980
 O         1.772856        -0.963138        -0.953389
 H        -0.006340         1.094987         1.130458
 H        -0.113286         1.160993        -0.791967
 H        -0.494171        -0.296887         0.118413
 H         2.199195         0.212685         2.207421
 H         1.541290        -1.442198         1.715959
 H         4.186967        -0.870529         1.884220
 H         3.830032        -2.284106         0.882280
 H         5.168193        -0.637757        -0.548431
 H         2.403740         1.969002        -0.861688
 H         3.252862        -0.391701        -2.404888
