19
Iteration:  3776
 C         0.189927         0.512930         0.284322
 C         1.639206         0.087006         0.066762
 C         2.231539        -0.559970         1.363926
 C         3.684076        -1.304066         1.035051
 C         4.084919        -0.394219        -0.082220
 O         3.975904         1.021780         0.207854
 C         2.701024         1.003110        -0.494934
 C         3.064634        -0.243885        -1.341847
 O         1.708184        -0.788546        -1.183714
 H         0.156164         1.441578         0.835022
 H        -0.355870         0.626659        -0.662662
 H        -0.458738        -0.160259         0.909380
 H         2.467355         0.108307         2.240273
 H         1.402359        -1.152895         1.675813
 H         4.275539        -1.465863         1.900970
 H         3.568834        -2.301857         0.706166
 H         5.094096        -0.434147        -0.446865
 H         2.412820         2.016003        -0.809006
 H         3.364358        -0.390459        -2.386244
