19
Iteration:   773charge 0 multiplicity 1
 C         0.099311         0.436045         0.240136
 C         1.659201         0.106182         0.083156
 C         2.279803        -0.411498         1.345038
 C         3.533581        -1.232561         0.964428
 C         4.059549        -0.452439        -0.262571
 O         3.953723         0.965846         0.318774
 C         2.693707         1.074406        -0.507760
 C         3.001006        -0.196084        -1.381092
 O         1.920730        -0.947345        -1.025679
 H         0.156568         1.503554         0.697728
 H        -0.467016         0.587678        -0.593336
 H        -0.366590        -0.214418         0.899092
 H         2.619444         0.445043         1.885157
 H         1.615382        -1.036537         2.034794
 H         4.301053        -1.122158         1.825289
 H         3.355508        -2.291230         0.891627
 H         5.093241        -0.805732        -0.593624
 H         2.590404         2.142546        -0.739432
 H         3.214635        -0.172151        -2.446300
