19
Iteration:   568
 C         0.233054         0.697544         0.280516
 C         1.615221         0.097487         0.072418
 C         2.199581        -0.630950         1.288107
 C         3.693428        -1.201379         1.108782
 C         4.187760        -0.377078        -0.098363
 O         3.814812         1.093410         0.183864
 C         2.674619         0.931084        -0.658494
 C         3.064768        -0.351448        -1.290392
 O         1.791963        -0.936435        -1.059496
 H         0.213326         1.617166         1.000959
 H        -0.293313         1.015410        -0.651764
 H        -0.393688        -0.140197         0.705366
 H         2.453977         0.015395         2.181969
 H         1.478417        -1.392971         1.583305
 H         4.289003        -1.013180         1.987170
 H         3.721871        -2.277781         0.792868
 H         5.214467        -0.452969        -0.354376
 H         2.266953         1.850934        -1.057952
 H         3.332010        -0.491100        -2.284600
