19
Iteration:   482
 C         0.123139         0.477011         0.120450
 C         1.582434         0.164167         0.079778
 C         2.265056        -0.445270         1.360770
 C         3.647677        -1.198140         0.954889
 C         4.149742        -0.388706        -0.225461
 O         3.954859         0.927661         0.277542
 C         2.765955         1.019662        -0.530612
 C         3.046334        -0.259462        -1.307275
 O         1.739076        -0.922102        -0.919899
 H        -0.201602         1.090309         0.903374
 H        -0.128186         0.741332        -0.947732
 H        -0.390160        -0.519700         0.335018
 H         2.445313         0.438232         2.068862
 H         1.525866        -1.047398         1.829913
 H         4.203803        -0.837188         1.827350
 H         3.699516        -2.370830         1.051001
 H         5.158881        -0.513900        -0.514571
 H         2.514317         1.946638        -1.021566
 H         3.121475        -0.224214        -2.352100
