19
Iteration:  3428charge 0 multiplicity 1
 C         0.183319         0.570332         0.346532
 C         1.657409         0.047413         0.077228
 C         2.113333        -0.675934         1.338476
 C         3.487916        -1.188763         0.941328
 C         4.175216        -0.341435        -0.076801
 O         4.024877         1.121227         0.122688
 C         2.704626         1.029962        -0.529445
 C         3.033286        -0.213783        -1.345668
 O         1.880103        -0.958356        -1.039354
 H         0.324756         1.354441         1.115453
 H        -0.445810         0.948101        -0.496446
 H        -0.361679        -0.266893         0.975889
 H         2.211484        -0.058498         2.321606
 H         1.336899        -1.430795         1.543332
 H         4.038673        -1.401461         1.901075
 H         3.480754        -2.244538         0.499718
 H         5.086918        -0.659837        -0.585138
 H         2.198662         2.058047        -0.936959
 H         3.412470        -0.406593        -2.369003
