19
Iteration:   905
 C         0.147517         0.424423         0.303155
 C         1.635233         0.120725         0.146245
 C         2.166314        -0.462028         1.347710
 C         3.413325        -1.279352         0.883061
 C         4.170347        -0.323518        -0.170759
 O         4.015416         1.087700         0.160636
 C         2.713314         1.062882        -0.558816
 C         3.090427        -0.258458        -1.355883
 O         1.889549        -0.949215        -0.921661
 H         0.012034         1.079671         1.211748
 H        -0.300809         0.855834        -0.531329
 H        -0.265780        -0.508021         0.599441
 H         2.426417         0.231354         2.117568
 H         1.421675        -1.223309         1.704341
 H         4.052506        -1.560473         1.780622
 H         3.147798        -2.278521         0.473507
 H         5.199462        -0.649300        -0.474844
 H         2.408863         1.974909        -1.118229
 H         3.403167        -0.320866        -2.393782
