19
Iteration:  1034
 C         0.194180         0.600007         0.235747
 C         1.593760         0.017199         0.102953
 C         2.280025        -0.626799         1.324741
 C         3.705745        -1.215385         1.096858
 C         4.234113        -0.335632        -0.082806
 O         3.911066         1.074718         0.158427
 C         2.676600         0.947642        -0.579042
 C         3.007543        -0.338436        -1.301474
 O         1.668662        -0.828968        -1.097524
 H        -0.005102         1.045339         1.271173
 H        -0.145529         1.207227        -0.517586
 H        -0.467384        -0.201065         0.027457
 H         2.468811         0.155391         2.008267
 H         1.644089        -1.238518         2.008591
 H         4.345530        -1.006989         1.865704
 H         3.488843        -2.287858         0.813722
 H         5.309312        -0.401457        -0.399581
 H         2.241677         1.790694        -1.036029
 H         3.551648        -0.351057        -2.256292
