19
Iteration:  2267
 C         0.171916         0.553776         0.176087
 C         1.626861         0.035654         0.155861
 C         2.214903        -0.554106         1.396143
 C         3.614946        -1.213694         0.911039
 C         4.087271        -0.380680        -0.267003
 O         3.941703         0.985225         0.201750
 C         2.707645         1.033638        -0.448348
 C         3.010128        -0.164123        -1.350902
 O         1.858721        -0.941249        -0.923964
 H        -0.015164         1.238510         1.007247
 H        -0.138950         0.972898        -0.891528
 H        -0.460581        -0.319217         0.333283
 H         2.607396         0.196568         2.087104
 H         1.660022        -1.312220         1.949463
 H         4.340086        -1.049737         1.705961
 H         3.482102        -2.257059         0.663802
 H         5.133390        -0.563338        -0.625743
 H         2.177103         2.065648        -0.688085
 H         3.221185        -0.177929        -2.528336
