19
Iteration:   857charge 0 multiplicity 1
 C         0.228381         0.633274         0.216852
 C         1.603728         0.024387         0.122042
 C         2.180539        -0.705090         1.324152
 C         3.736522        -1.038452         1.092512
 C         4.174003        -0.436123        -0.204152
 O         3.912372         0.978272         0.179874
 C         2.711454         1.023130        -0.463737
 C         3.001794        -0.254048        -1.381245
 O         1.707762        -0.906010        -1.048693
 H        -0.049275         0.862433         1.297397
 H         0.108140         1.574070        -0.433201
 H        -0.489803        -0.200188        -0.120078
 H         2.072134         0.054349         2.132690
 H         1.710335        -1.620839         1.643466
 H         4.425049        -0.451783         1.712654
 H         3.928275        -2.200858         1.283185
 H         5.214883        -0.687161        -0.494689
 H         2.299594         1.982773        -0.782518
 H         3.233038        -0.212365        -2.489985
