19
Iteration:  4177charge 0 multiplicity 1
 C         0.174224         0.525511         0.257614
 C         1.639868         0.143777         0.143429
 C         2.118872        -0.634231         1.318945
 C         3.585956        -1.284172         0.986741
 C         4.123372        -0.412895        -0.173604
 O         3.999866         1.105171         0.187911
 C         2.733666         1.091325        -0.635051
 C         3.005064        -0.267238        -1.326849
 O         1.829776        -0.896013        -0.947869
 H         0.182168         1.196401         1.116231
 H        -0.221101         0.935556        -0.694876
 H        -0.545237        -0.278868         0.616628
 H         2.287274        -0.039308         2.210063
 H         1.435967        -1.470836         1.536691
 H         4.370579        -1.054546         1.737082
 H         3.646063        -2.330605         0.845703
 H         5.144037        -0.584378        -0.581602
 H         2.399113         2.056241        -0.905917
 H         3.471295        -0.489341        -2.248013
