19
Iteration:  2143
 C         0.224031         0.496494         0.090862
 C         1.626972         0.035925         0.214724
 C         2.373537        -0.556245         1.442120
 C         3.594832        -1.253237         0.912757
 C         4.141214        -0.360447        -0.182470
 O         3.975260         1.058656         0.172051
 C         2.597785         1.001720        -0.490555
 C         2.991934        -0.236261        -1.266362
 O         1.718160        -0.854641        -0.998710
 H        -0.017242         1.104028         1.047008
 H         0.027199         0.929101        -0.855470
 H        -0.485630        -0.395758         0.168521
 H         2.466191         0.404288         2.032878
 H         1.683951        -1.243058         1.893680
 H         4.371703        -1.349225         1.650717
 H         3.460815        -2.235812         0.564975
 H         5.145530        -0.455808        -0.533453
 H         2.335249         2.056693        -0.767562
 H         3.327485        -0.385827        -2.296173
