19
Iteration:  2799
 C         0.223985         0.513124         0.315897
 C         1.638106         0.037191         0.102541
 C         2.153455        -0.607757         1.359277
 C         3.608236        -1.180011         1.013347
 C         4.106640        -0.415566        -0.115503
 O         3.952321         1.023656         0.165366
 C         2.689407         1.030676        -0.575661
 C         3.136002        -0.266250        -1.337423
 O         1.748701        -0.819851        -1.107248
 H         0.195931         0.983062         1.335811
 H        -0.165642         1.334276        -0.427489
 H        -0.450925        -0.330232         0.413070
 H         2.270756         0.179913         2.052065
 H         1.512644        -1.342298         1.927488
 H         4.277681        -1.273805         1.879096
 H         3.504397        -2.222429         0.699026
 H         5.205373        -0.365896        -0.502160
 H         2.205767         2.000476        -0.782871
 H         3.572770        -0.333999        -2.353239
