19
Iteration:  1807
 C         0.169705         0.468454         0.207951
 C         1.561043         0.086234         0.156063
 C         2.187718        -0.538480         1.399329
 C         3.523506        -1.127759         0.939143
 C         4.164305        -0.404705        -0.240678
 O         3.976412         0.986006         0.175212
 C         2.750043         1.048867        -0.491581
 C         3.070478        -0.205160        -1.320841
 O         1.818076        -0.931453        -0.975654
 H        -0.022182         1.096787         1.123788
 H        -0.146770         0.980784        -0.723817
 H        -0.441819        -0.434908         0.413285
 H         2.319767         0.236191         2.237803
 H         1.449609        -1.312279         1.763593
 H         4.420392        -0.943956         1.576547
 H         3.546905        -2.200862         0.768577
 H         5.092553        -0.806250        -0.536257
 H         2.593831         1.963951        -0.887925
 H         3.370419        -0.155654        -2.392369
