19
Iteration:  2641charge 0 multiplicity 1
 C         0.174473         0.598505         0.171719
 C         1.627077         0.066092         0.191154
 C         2.229073        -0.647360         1.413599
 C         3.600423        -1.110525         0.991496
 C         4.158874        -0.413922        -0.286667
 O         3.959493         0.990533         0.199478
 C         2.637562         0.982851        -0.401208
 C         3.072914        -0.158751        -1.382302
 O         1.779734        -0.954313        -1.049725
 H        -0.070824         1.012810         1.160647
 H        -0.072952         1.234733        -0.582096
 H        -0.504478        -0.321421         0.173649
 H         2.453089         0.136485         2.151298
 H         1.543381        -1.422617         1.781391
 H         4.354170        -0.821075         1.825870
 H         3.607655        -2.215903         0.828421
 H         5.184436        -0.689113        -0.676663
 H         2.377762         2.027985        -0.650682
 H         3.310635        -0.101215        -2.454835
