19
Iteration:  3182
 C         0.227578         0.446155         0.327907
 C         1.653922         0.035681         0.060460
 C         2.253946        -0.501118         1.408914
 C         3.614415        -1.277558         1.044440
 C         4.056036        -0.395875        -0.137672
 O         3.915125         1.064090         0.210485
 C         2.723223         0.996685        -0.521922
 C         3.076881        -0.247358        -1.316851
 O         1.733676        -0.816166        -1.149981
 H         0.327406         1.064800         1.222882
 H        -0.021282         1.116782        -0.505824
 H        -0.555625        -0.223852         0.155333
 H         2.469684         0.480605         1.816932
 H         1.540253        -1.255484         1.850560
 H         4.312070        -1.544125         1.882676
 H         3.294485        -2.151180         0.385649
 H         5.063181        -0.491745        -0.638591
 H         2.381878         1.990318        -0.826813
 H         3.547810        -0.404403        -2.364871
