19
Iteration:  1371charge 0 multiplicity 1
 C         0.136163         0.464087         0.281281
 C         1.614894         0.187320         0.092523
 C         2.188790        -0.504261         1.335333
 C         3.502823        -1.276041         0.917073
 C         4.209353        -0.371658        -0.129869
 O         3.968500         1.062949         0.152458
 C         2.731194         1.092959        -0.589788
 C         3.045866        -0.261251        -1.329884
 O         1.884479        -0.985369        -0.881432
 H        -0.003478         1.308737         1.081963
 H        -0.300820         0.858855        -0.581089
 H        -0.265106        -0.541198         0.584268
 H         2.236755         0.256850         2.143689
 H         1.386768        -1.227513         1.538890
 H         4.087072        -1.482514         1.890565
 H         3.150791        -2.266232         0.484818
 H         5.230316        -0.659175        -0.422263
 H         2.333128         2.075817        -1.155884
 H         3.371576        -0.309469        -2.489679
