19
Iteration:  1410
 C         0.201713         0.544291         0.144291
 C         1.616307        -0.014577         0.140809
 C         2.308950        -0.454839         1.424737
 C         3.646151        -1.239483         1.081783
 C         4.140572        -0.451783        -0.187390
 O         3.931410         1.035635         0.195553
 C         2.628871         0.968384        -0.527094
 C         3.036357        -0.219140        -1.308300
 O         1.746885        -0.879892        -1.105605
 H        -0.066535         1.059009         1.028458
 H        -0.000038         1.169290        -0.782358
 H        -0.610733        -0.201449         0.163370
 H         2.547803         0.413590         2.082186
 H         1.714264        -1.075351         2.118761
 H         4.402875        -1.175008         1.871006
 H         3.431142        -2.242203         0.721787
 H         5.217102        -0.477962        -0.358838
 H         2.310542         1.938641        -0.859052
 H         3.267953        -0.272112        -2.325586
