19
Iteration:  2506
 C         0.195574         0.581075         0.189536
 C         1.596336         0.010028         0.209590
 C         2.209769        -0.775455         1.359555
 C         3.669439        -1.175601         0.964028
 C         4.171227        -0.357951        -0.183090
 O         3.994167         1.100244         0.084889
 C         2.616868         1.042722        -0.453566
 C         3.025715        -0.181456        -1.236908
 O         1.784061        -0.911729        -0.998136
 H        -0.048413         1.294336         0.903701
 H         0.170359         1.199674        -0.759154
 H        -0.489561        -0.209941         0.122495
 H         2.282480         0.036533         2.178827
 H         1.521832        -1.594797         1.530226
 H         4.358132        -1.129805         1.835607
 H         3.438096        -2.278717         0.602058
 H         5.057330        -0.713877        -0.634134
 H         2.175581         2.085149        -0.680977
 H         3.282280        -0.197543        -2.345181
