19
Iteration:  4531charge 0 multiplicity 1
 C         0.153967         0.497547         0.232375
 C         1.554795        -0.009711         0.135324
 C         2.227665        -0.509599         1.400958
 C         3.630065        -1.268191         1.083604
 C         4.157588        -0.455271        -0.200952
 O         4.019405         1.057544         0.155079
 C         2.690979         0.953401        -0.480372
 C         3.075286        -0.164108        -1.383860
 O         1.722922        -0.838113        -1.116826
 H         0.225720         1.332929         0.994609
 H        -0.164707         0.930374        -0.765663
 H        -0.554415        -0.194964         0.655599
 H         2.447530         0.448424         1.914327
 H         1.534217        -1.126394         1.954562
 H         4.297088        -1.073341         1.955750
 H         3.487582        -2.370996         1.062622
 H         5.170307        -0.587138        -0.291349
 H         2.383174         1.943674        -0.831807
 H         3.426925        -0.119097        -2.385709
