19
Iteration:   310
 C         0.188734         0.480149         0.225809
 C         1.650873         0.040172         0.058139
 C         2.283957        -0.358809         1.391908
 C         3.544493        -1.195341         1.029624
 C         4.117408        -0.419144        -0.129001
 O         3.876155         1.015000         0.281747
 C         2.756262         0.974880        -0.536899
 C         3.034077        -0.260121        -1.408586
 O         1.776885        -0.958301        -1.090116
 H         0.274561         1.080780         1.086705
 H        -0.002074         1.104328        -0.743760
 H        -0.445113        -0.437144         0.414840
 H         2.584885         0.556731         1.915567
 H         1.626190        -0.873585         2.122421
 H         4.191047        -1.145816         1.920060
 H         3.322279        -2.169606         0.812500
 H         5.227690        -0.589156        -0.351267
 H         2.421160         1.897426        -1.011227
 H         3.451753        -0.251740        -2.477625
