19
Iteration:  3959charge 0 multiplicity 1
 C         0.216920         0.631304         0.190047
 C         1.588569         0.084499         0.189319
 C         2.268385        -0.598251         1.436599
 C         3.597443        -1.253598         0.948967
 C         4.152751        -0.378749        -0.225471
 O         3.875341         0.943906         0.288059
 C         2.676240         1.009022        -0.553256
 C         3.070775        -0.117579        -1.415428
 O         1.808288        -0.957213        -1.013760
 H         0.078558         1.648219         0.544276
 H        -0.021787         0.849504        -0.866905
 H        -0.400771        -0.162977         0.599952
 H         2.437656         0.014130         2.278686
 H         1.538734        -1.277439         1.858948
 H         4.303801        -1.145978         1.778134
 H         3.532030        -2.325022         0.901533
 H         5.160283        -0.551642        -0.698487
 H         2.410346         2.002013        -0.825348
 H         3.184237        -0.136088        -2.477262
