19
Iteration:  3894charge 0 multiplicity 1
 C         0.198551         0.530828         0.350224
 C         1.613365         0.054725         0.064079
 C         2.118153        -0.630877         1.408444
 C         3.427452        -1.210026         0.920345
 C         4.116247        -0.395016        -0.191409
 O         4.018873         1.108740         0.135802
 C         2.728793         1.050796        -0.576523
 C         3.142450        -0.234250        -1.311500
 O         1.846290        -0.872047        -0.988357
 H         0.242121         1.004921         1.307192
 H        -0.171833         1.214682        -0.438956
 H        -0.483465        -0.332541         0.374678
 H         2.011441        -0.074773         2.404732
 H         1.606963        -1.594364         1.645595
 H         4.104674        -1.465549         1.869187
 H         3.445810        -2.311285         0.670883
 H         5.161379        -0.626441        -0.629776
 H         2.495850         2.038121        -0.923671
 H         3.622486        -0.398420        -2.279521
