19
Iteration:  2723charge 0 multiplicity 1
 C         0.260322         0.571417         0.208485
 C         1.649350        -0.025751         0.149782
 C         2.252061        -0.562596         1.406622
 C         3.630178        -1.253887         0.956488
 C         4.029449        -0.395661        -0.196364
 O         3.928909         1.044211         0.261282
 C         2.622603         1.006656        -0.447088
 C         3.024037        -0.215506        -1.345441
 O         1.811489        -0.894848        -1.118802
 H         0.313318         1.524821         0.833177
 H        -0.242905         0.943277        -0.856630
 H        -0.483267        -0.130821         0.594335
 H         2.564682         0.247851         2.026223
 H         1.536328        -1.058932         2.077669
 H         4.400047        -1.073967         1.670939
 H         3.783364        -2.303194         0.774799
 H         5.058350        -0.550608        -0.610256
 H         2.339871         1.998926        -0.822737
 H         3.280524        -0.262171        -2.428472
