19
Iteration:  1118charge 0 multiplicity 1
 C         0.171656         0.542560         0.226628
 C         1.602039         0.087264         0.082892
 C         2.250594        -0.625288         1.384765
 C         3.699513        -1.224127         1.035197
 C         4.148416        -0.385357        -0.125779
 O         3.921178         1.042433         0.198559
 C         2.721947         1.022019        -0.608858
 C         3.025106        -0.274465        -1.325846
 O         1.730879        -0.868137        -1.035410
 H         0.141029         1.435376         0.843714
 H        -0.256240         0.895808        -0.750438
 H        -0.515836        -0.160672         0.785904
 H         2.326026         0.275323         2.025198
 H         1.460483        -1.301858         1.687657
 H         4.344377        -1.059426         1.953466
 H         3.744844        -2.307445         0.965807
 H         5.135342        -0.530386        -0.471995
 H         2.373917         1.961010        -1.010160
 H         3.396106        -0.482013        -2.341720
