19
Iteration:   152
 C         0.136128         0.441880         0.072672
 C         1.623804         0.111381         0.198043
 C         2.134621        -0.558437         1.407324
 C         3.550253        -1.125622         1.048156
 C         4.165134        -0.396595        -0.207925
 O         4.146203         1.089167         0.042681
 C         2.710511         0.998356        -0.498732
 C         3.060110        -0.290037        -1.280675
 O         1.754418        -0.892616        -0.878742
 H        -0.285231         1.265631         0.835939
 H        -0.114973         0.855301        -0.888206
 H        -0.459936        -0.467859         0.144948
 H         2.241034         0.180487         2.253641
 H         1.362256        -1.334092         1.685375
 H         4.174530        -1.200898         1.916454
 H         3.444465        -2.241604         0.714245
 H         5.110722        -0.815278        -0.456174
 H         2.244865         1.903446        -1.060937
 H         3.331253        -0.229299        -2.302894
