19
Iteration:   186
 C         0.156997         0.514847         0.237479
 C         1.619437         0.100814         0.044791
 C         2.210187        -0.480906         1.398183
 C         3.532556        -1.245784         1.054272
 C         4.123922        -0.397652        -0.161084
 O         3.923861         1.081590         0.221448
 C         2.716912         1.008592        -0.649919
 C         3.129623        -0.282984        -1.377075
 O         1.857082        -0.967501        -0.956683
 H         0.175394         1.348867         1.042416
 H        -0.293609         0.889998        -0.729597
 H        -0.421571        -0.321036         0.705223
 H         2.427668         0.408586         2.057658
 H         1.367716        -1.012982         1.880587
 H         4.138782        -1.266770         1.917059
 H         3.295487        -2.257589         0.643943
 H         5.158834        -0.571281        -0.431088
 H         2.446418         2.004800        -1.150342
 H         3.353814        -0.426802        -2.403461
