19
Iteration:  3704charge 0 multiplicity 1
 C         0.211659         0.562965         0.193966
 C         1.646121         0.060509         0.181833
 C         2.197088        -0.730232         1.410410
 C         3.562132        -1.306145         0.882311
 C         4.134342        -0.305262        -0.096419
 O         4.048042         1.138096         0.116609
 C         2.722305         0.991027        -0.537540
 C         3.013934        -0.263126        -1.283016
 O         1.729854        -0.793863        -0.987828
 H        -0.154378         1.029140         1.129083
 H        -0.038005         1.221574        -0.584618
 H        -0.415302        -0.335165         0.062628
 H         2.164847        -0.014536         2.178527
 H         1.449729        -1.509035         1.720995
 H         4.207257        -1.369937         1.774020
 H         3.578128        -2.376742         0.511301
 H         5.118422        -0.495862        -0.493041
 H         2.371841         1.996602        -0.827555
 H         3.439230        -0.534502        -2.221970
