19
Iteration:  4704charge 0 multiplicity 1
 C         0.235890         0.578361         0.230093
 C         1.558077        -0.016374         0.063179
 C         2.208846        -0.515099         1.405620
 C         3.636328        -1.188381         0.959621
 C         4.140790        -0.353679        -0.263686
 O         3.935948         0.989675         0.330946
 C         2.658854         1.003867        -0.479532
 C         3.053087        -0.231448        -1.424076
 O         1.809990        -0.950282        -0.992073
 H         0.493495         1.590804         0.671753
 H        -0.208728         0.674978        -0.781376
 H        -0.490107         0.036241         0.832245
 H         2.279899         0.459566         2.063658
 H         1.509151        -1.151911         1.913250
 H         4.498723        -1.217964         1.683191
 H         3.307836        -2.177455         0.697945
 H         5.211438        -0.618235        -0.625972
 H         2.397543         1.936867        -0.972467
 H         3.178656        -0.270206        -2.465696
