19
Iteration:  2198
 C         0.205634         0.530844         0.361542
 C         1.611977         0.088831         0.108072
 C         2.188410        -0.704282         1.314815
 C         3.603678        -1.169130         0.994971
 C         4.097524        -0.362648        -0.124880
 O         3.974941         1.134403         0.106286
 C         2.768071         0.999208        -0.577814
 C         3.051336        -0.257885        -1.286730
 O         1.777517        -0.908227        -1.002418
 H         0.072582         1.388108         1.182420
 H        -0.432805         0.827417        -0.509994
 H        -0.292015        -0.391697         0.814573
 H         1.881521         0.006405         2.157802
 H         1.472244        -1.495163         1.327011
 H         4.351892        -1.279051         1.766742
 H         3.483583        -2.038922         0.391201
 H         5.093936        -0.553828        -0.471997
 H         2.554989         1.970054        -1.131800
 H         3.474314        -0.320605        -2.339101
