19
Iteration:  2992charge 0 multiplicity 1
 C         0.189571         0.525537         0.132144
 C         1.637281         0.167065         0.170607
 C         2.169980        -0.614812         1.433510
 C         3.640885        -1.217666         0.937101
 C         4.176215        -0.409843        -0.291618
 O         3.945013         1.010121         0.254150
 C         2.753131         1.048941        -0.477683
 C         2.945860        -0.192857        -1.380113
 O         1.812802        -0.934471        -0.970261
 H        -0.165002         1.021278         1.125873
 H         0.115292         1.265058        -0.710347
 H        -0.682130        -0.214885         0.236091
 H         2.392092         0.041213         2.285053
 H         1.473695        -1.428452         1.802791
 H         4.219371        -0.956414         1.863132
 H         3.752880        -2.295672         0.832059
 H         5.138823        -0.736915        -0.698174
 H         2.277651         1.958097        -0.816065
 H         3.215880        -0.313117        -2.421071
