19
Iteration:  3671
 C         0.174753         0.522708         0.332034
 C         1.625465         0.034919         0.068164
 C         2.206693        -0.475609         1.285178
 C         3.582204        -1.235434         0.944813
 C         4.105395        -0.422764        -0.195589
 O         3.989521         0.910944         0.266365
 C         2.671148         1.000122        -0.505901
 C         3.044189        -0.153706        -1.336484
 O         1.835706        -0.843527        -1.061850
 H         0.120421         0.914233         1.368641
 H        -0.163556         1.174821        -0.400591
 H        -0.382794        -0.411225         0.267544
 H         2.446448         0.289851         1.933739
 H         1.518026        -1.301665         1.682754
 H         4.198317        -0.774605         1.726502
 H         3.396778        -2.337400         1.037662
 H         5.095265        -0.604621        -0.562765
 H         2.381225         2.056686        -0.725065
 H         3.286624        -0.104685        -2.382614
