19
Iteration:   467charge 0 multiplicity 1
 C         0.123426         0.428593         0.171921
 C         1.622038         0.104046         0.118787
 C         2.244086        -0.381975         1.382755
 C         3.507025        -1.205278         0.971004
 C         4.128048        -0.443201        -0.182470
 O         3.963438         1.008563         0.185462
 C         2.707024         1.051120        -0.550691
 C         3.040794        -0.218554        -1.310800
 O         1.900429        -0.953547        -0.930685
 H        -0.034623         1.342903         0.908695
 H        -0.261015         0.793632        -0.731089
 H        -0.388498        -0.480767         0.382976
 H         2.481383         0.418425         2.069509
 H         1.528095        -1.124652         1.857683
 H         4.245720        -1.518516         1.708849
 H         3.085025        -2.063958         0.518403
 H         5.167568        -0.735283        -0.467032
 H         2.486368         2.093794        -0.853731
 H         3.419114        -0.396083        -2.345096
