19
Iteration:  2299
 C         0.118693         0.446908         0.267271
 C         1.632810         0.080534         0.194764
 C         2.215495        -0.605166         1.431168
 C         3.567139        -1.296018         0.916995
 C         4.107914        -0.321622        -0.089766
 O         4.043359         1.123499         0.099607
 C         2.832987         1.059615        -0.576259
 C         3.057735        -0.249559        -1.294978
 O         1.716102        -0.858674        -1.035313
 H        -0.382478         1.058151         1.058519
 H        -0.346615         0.881310        -0.754426
 H        -0.209750        -0.587466         0.400484
 H         2.596955         0.043906         2.224027
 H         1.506376        -1.243705         1.913810
 H         4.187294        -1.544403         1.748388
 H         3.463631        -2.131056         0.297863
 H         5.123644        -0.462462        -0.491848
 H         2.262832         2.046389        -0.860605
 H         3.273988        -0.439305        -2.426837
