19
Iteration:  1241charge 0 multiplicity 1
 C         0.218855         0.423817         0.191106
 C         1.610227        -0.000751         0.150039
 C         2.301031        -0.405699         1.482698
 C         3.511381        -1.186957         1.041688
 C         4.087952        -0.402696        -0.156332
 O         4.002030         1.021593         0.158270
 C         2.712154         1.031207        -0.492280
 C         3.020991        -0.221936        -1.388862
 O         1.791765        -0.884000        -1.117534
 H         0.022845         1.073539         1.128194
 H        -0.353779         0.794340        -0.614693
 H        -0.449402        -0.473403         0.300006
 H         2.804344         0.526623         2.008566
 H         1.590655        -0.965586         2.237233
 H         4.214597        -1.551245         1.785846
 H         3.241895        -2.233320         0.564052
 H         5.106352        -0.769017        -0.399666
 H         2.230004         1.901908        -0.766061
 H         3.359700        -0.120143        -2.508256
