19
Iteration:  1928charge 0 multiplicity 1
 C         0.165422         0.504727         0.238137
 C         1.630990         0.063017         0.128342
 C         2.163029        -0.755035         1.351539
 C         3.590625        -1.187821         1.048199
 C         4.137255        -0.354789        -0.074006
 O         4.135764         1.156689         0.023049
 C         2.720021         0.992999        -0.534252
 C         2.964416        -0.216561        -1.266785
 O         1.727788        -0.866415        -1.014691
 H        -0.059352         1.069060         1.136987
 H         0.032194         1.287618        -0.663238
 H        -0.622708        -0.221270         0.284820
 H         2.175435        -0.006574         2.170866
 H         1.508403        -1.658571         1.629463
 H         4.146944        -1.311063         2.032563
 H         3.650232        -2.168328         0.518258
 H         5.175368        -0.402661        -0.410583
 H         2.339321         1.851693        -0.899558
 H         3.396453        -0.410377        -2.302542
