19
Iteration:   704
 C         0.261084         0.707831         0.288671
 C         1.590940         0.101024         0.130552
 C         2.141068        -0.701865         1.277964
 C         3.582684        -1.140226         1.009876
 C         4.151491        -0.348205        -0.158848
 O         3.895089         1.091823         0.151030
 C         2.665655         0.949431        -0.593123
 C         3.064505        -0.328114        -1.297325
 O         1.870658        -0.963943        -0.969853
 H         0.368524         1.309364         1.190655
 H        -0.054954         1.478006        -0.473946
 H        -0.445259        -0.145360         0.407749
 H         2.166105        -0.210754         2.289308
 H         1.476710        -1.598902         1.337304
 H         4.326777        -1.072634         1.819423
 H         3.622098        -2.277335         0.818533
 H         5.254435        -0.472577        -0.340518
 H         2.190528         1.797591        -1.119992
 H         3.368990        -0.503971        -2.393398
