19
Iteration:  4144charge 0 multiplicity 1
 C         0.208439         0.556025         0.274988
 C         1.596977        -0.024717         0.169452
 C         2.172856        -0.567599         1.374623
 C         3.685595        -1.191020         1.019254
 C         4.206846        -0.394380        -0.090141
 O         4.002097         1.045785         0.199617
 C         2.678044         0.956086        -0.494201
 C         3.005718        -0.227438        -1.355302
 O         1.698209        -0.861805        -1.241267
 H         0.375743         1.534147         0.722231
 H        -0.307514         0.878872        -0.666587
 H        -0.487784        -0.046419         0.937029
 H         2.289536         0.264286         2.042281
 H         1.512569        -1.311693         1.908316
 H         4.276824        -1.012427         1.947249
 H         3.640990        -2.232509         0.839251
 H         5.207065        -0.548158        -0.512694
 H         2.251168         1.885677        -0.719837
 H         3.397679        -0.414983        -2.295788
