19
Iteration:  1340
 C         0.192519         0.527982         0.228277
 C         1.614922         0.062819         0.115753
 C         2.194516        -0.683296         1.386065
 C         3.661837        -1.137395         1.087166
 C         4.202220        -0.377865        -0.126718
 O         3.990210         1.052186         0.147329
 C         2.711132         1.020902        -0.547767
 C         2.957991        -0.275081        -1.346701
 O         1.732724        -0.863062        -1.086030
 H         0.069377         1.452639         0.886184
 H        -0.124891         0.818063        -0.754845
 H        -0.589418        -0.119016         0.643353
 H         2.099458         0.078871         2.242924
 H         1.571518        -1.486462         1.866806
 H         4.333529        -0.807806         1.861333
 H         3.609627        -2.261136         0.911902
 H         5.160246        -0.699074        -0.567243
 H         2.427923         1.952060        -0.953218
 H         3.470139        -0.383706        -2.347309
