19
Iteration:  4323charge 0 multiplicity 1
 C         0.144314         0.709278         0.191225
 C         1.544092         0.050712         0.103493
 C         2.285831        -0.644433         1.383189
 C         3.710919        -1.205870         1.016480
 C         4.121735        -0.387162        -0.231833
 O         3.903439         0.983717         0.307237
 C         2.700430         0.982119        -0.558554
 C         3.000483        -0.193806        -1.337157
 O         1.821294        -0.979331        -1.060921
 H         0.176663         1.688117         0.805304
 H        -0.097604         1.079331        -0.812857
 H        -0.564466         0.130991         0.781685
 H         2.283445         0.077930         2.237773
 H         1.709644        -1.512952         1.650918
 H         4.269424        -0.932519         1.908731
 H         3.577130        -2.250921         0.960397
 H         5.172535        -0.522799        -0.543302
 H         2.508461         2.007118        -1.000650
 H         3.289431        -0.346207        -2.403379
