19
Iteration:  4403charge 0 multiplicity 1
 C         0.116107         0.392739         0.243700
 C         1.599641         0.145256         0.105855
 C         2.166266        -0.507621         1.372722
 C         3.559582        -1.167304         0.950244
 C         4.129482        -0.437577        -0.200085
 O         4.055445         1.022121         0.187343
 C         2.838975         1.055197        -0.521798
 C         3.017737        -0.212687        -1.302950
 O         1.761966        -0.901410        -0.982885
 H        -0.036283         0.875059         1.165100
 H        -0.265425         1.025221        -0.562991
 H        -0.384863        -0.543895         0.105620
 H         2.363811         0.252552         2.075644
 H         1.424000        -1.173139         1.874853
 H         4.235310        -1.220053         1.742396
 H         3.410443        -2.210166         0.614004
 H         5.158118        -0.720830        -0.401788
 H         2.692365         2.025716        -0.980430
 H         3.209521        -0.228420        -2.346733
