19
Iteration:  4925
 C         0.211243         0.557764         0.285776
 C         1.639691         0.013953         0.082328
 C         2.214862        -0.656901         1.324153
 C         3.569969        -1.179781         0.977805
 C         4.129183        -0.345012        -0.193384
 O         3.971793         1.034283         0.182911
 C         2.655569         1.049655        -0.536888
 C         3.023606        -0.237032        -1.308509
 O         1.818525        -0.930511        -1.003177
 H         0.348126         1.496791         0.854464
 H        -0.254622         0.900110        -0.683944
 H        -0.316742        -0.190160         0.899279
 H         2.266697         0.074872         2.101314
 H         1.316212        -1.286838         1.612112
 H         4.141365        -0.946190         1.839602
 H         3.605951        -2.234057         0.774842
 H         5.171006        -0.532668        -0.514345
 H         2.344066         2.094495        -0.658662
 H         3.420364        -0.246639        -2.351029
