19
Iteration:  3127
 C         0.191698         0.528043         0.174289
 C         1.616598         0.081209         0.143516
 C         2.202119        -0.701928         1.396180
 C         3.576447        -1.199644         0.970044
 C         4.121533        -0.387455        -0.170563
 O         4.054437         1.062407         0.124302
 C         2.684481         1.077257        -0.485355
 C         2.969980        -0.172971        -1.302896
 O         1.776009        -0.914039        -0.999082
 H         0.112949         1.235625         1.014330
 H         0.112443         1.057634        -0.743288
 H        -0.438790        -0.280700         0.347832
 H         2.254101        -0.012486         2.221088
 H         1.610121        -1.520990         1.890241
 H         4.248479        -1.199557         1.870259
 H         3.673081        -2.257003         0.604731
 H         5.181158        -0.694297        -0.369282
 H         2.405003         2.061006        -0.806838
 H         3.215315        -0.227938        -2.409429
