19
Iteration:   630
 C         0.090546         0.388880         0.128836
 C         1.584064         0.147106         0.147766
 C         2.194746        -0.520378         1.427505
 C         3.455781        -1.212258         0.897635
 C         4.161118        -0.403333        -0.176632
 O         4.093143         1.042303         0.111423
 C         2.760908         1.108401        -0.597800
 C         3.003475        -0.253971        -1.284151
 O         1.874947        -0.870137        -0.784130
 H        -0.160007         1.203655         0.867402
 H        -0.287323         0.669586        -0.798574
 H        -0.259217        -0.597525         0.336640
 H         2.376763         0.145185         2.236653
 H         1.374970        -1.273274         1.642858
 H         4.161873        -1.447220         1.747741
 H         3.353713        -2.199955         0.549179
 H         5.164076        -0.757322        -0.600042
 H         2.524438         2.104000        -1.027572
 H         3.276882        -0.420313        -2.372838
