19
Iteration:  1681
 C         0.138957         0.511606         0.154150
 C         1.627643         0.105249         0.103910
 C         2.268981        -0.517139         1.380234
 C         3.666459        -1.226364         1.014521
 C         4.130555        -0.459126        -0.205507
 O         3.942761         1.009108         0.232164
 C         2.687405         1.048043        -0.480095
 C         3.058419        -0.271173        -1.335349
 O         1.761804        -0.853623        -0.988541
 H        -0.178298         1.476134         0.492438
 H        -0.240406         0.434706        -0.946834
 H        -0.457130        -0.311993         0.572430
 H         2.561866         0.243185         2.053767
 H         1.536683        -1.138127         1.876104
 H         4.224101        -1.153253         1.972498
 H         3.632164        -2.373959         0.775279
 H         5.203226        -0.578592        -0.615490
 H         2.180119         1.979325        -0.957439
 H         3.341031        -0.130932        -2.370212
