19
Iteration:  4188
 C         0.154219         0.558386         0.233623
 C         1.581022         0.194487         0.112821
 C         2.190322        -0.673511         1.274686
 C         3.524712        -1.213714         0.915443
 C         4.168941        -0.317358        -0.201277
 O         4.045524         1.084888         0.161192
 C         2.738554         1.094860        -0.526214
 C         3.004935        -0.332688        -1.279464
 O         1.840118        -1.000981        -0.876700
 H         0.004820         1.163723         1.112133
 H        -0.182167         1.203781        -0.591064
 H        -0.378579        -0.432533         0.289826
 H         2.297308        -0.039729         2.148440
 H         1.398620        -1.383512         1.549078
 H         4.117509        -1.199820         1.854450
 H         3.447450        -2.186574         0.513633
 H         5.216232        -0.634291        -0.347082
 H         2.428138         2.064895        -0.784103
 H         3.150175        -0.395628        -2.323106
