19
Iteration:   615charge 0 multiplicity 1
 C         0.096116         0.407094         0.151826
 C         1.628751         0.161061         0.175637
 C         2.188839        -0.450162         1.405585
 C         3.485366        -1.256349         0.956593
 C         4.110928        -0.442909        -0.259232
 O         4.040226         1.025549         0.070048
 C         2.733552         1.064829        -0.441381
 C         3.077278        -0.160180        -1.323999
 O         1.907528        -0.964600        -0.871521
 H        -0.202647         1.316422         0.618640
 H        -0.199181         0.592833        -1.030820
 H        -0.584120        -0.453591         0.574304
 H         2.374219         0.486496         2.176448
 H         1.523265        -1.137811         1.936184
 H         4.194875        -1.211380         1.851335
 H         3.032393        -2.335405         0.634668
 H         5.173590        -0.712979        -0.392911
 H         2.449856         2.097524        -0.735756
 H         3.250316        -0.271339        -2.458918
