19
Iteration:  2819charge 0 multiplicity 1
 C         0.177728         0.524854         0.301065
 C         1.574964         0.008956         0.059102
 C         2.324191        -0.561167         1.304636
 C         3.643440        -1.212830         1.020296
 C         4.130948        -0.417028        -0.086003
 O         3.977270         1.088258         0.271693
 C         2.696408         0.946153        -0.516421
 C         2.971289        -0.263770        -1.340526
 O         1.730426        -0.849172        -1.180413
 H         0.170851         1.198908         1.167741
 H        -0.072510         1.285720        -0.289676
 H        -0.625002        -0.119598         0.161132
 H         2.454509         0.238845         2.018011
 H         1.489019        -1.143581         1.904239
 H         4.418556        -1.187705         1.928011
 H         3.649521        -2.324827         0.936798
 H         5.282981        -0.530377        -0.371520
 H         2.437776         1.820242        -1.105592
 H         3.256367        -0.140947        -2.392567
