19
Iteration:   932charge 0 multiplicity 1
 C         0.162463         0.482077         0.219705
 C         1.626706         0.025937         0.130816
 C         2.284344        -0.458998         1.412486
 C         3.540929        -1.255710         0.965219
 C         4.155495        -0.386366        -0.194028
 O         3.900810         1.003212         0.230997
 C         2.684751         1.086697        -0.521929
 C         3.058150        -0.211735        -1.387472
 O         1.823931        -0.910552        -1.007775
 H         0.077569         1.395273         0.725496
 H        -0.313761         0.557153        -0.810014
 H        -0.353377        -0.278043         0.867570
 H         2.730223         0.412198         1.955833
 H         1.661139        -1.076405         2.041812
 H         4.201138        -1.529864         1.762163
 H         3.293577        -2.240629         0.619519
 H         5.110938        -0.679634        -0.564746
 H         2.404906         2.066192        -0.911819
 H         3.452201        -0.264546        -2.425221
