19
Iteration:  1110
 C         0.145023         0.502791         0.213531
 C         1.574648         0.033556         0.122153
 C         2.255444        -0.599015         1.382062
 C         3.649033        -1.207166         1.091416
 C         4.121963        -0.347401        -0.116571
 O         3.997928         1.056580         0.160712
 C         2.758053         1.036422        -0.616057
 C         2.988046        -0.291902        -1.330882
 O         1.744571        -0.830943        -1.037205
 H        -0.079802         1.463924         0.793645
 H        -0.108009         0.739070        -0.808840
 H        -0.505139        -0.265246         0.730863
 H         2.503527         0.046107         2.240847
 H         1.532894        -1.350709         1.859684
 H         4.394993        -1.246028         1.827471
 H         3.464535        -2.193263         0.541336
 H         5.161782        -0.587644        -0.416424
 H         2.441255         1.962924        -1.000861
 H         3.422452        -0.475789        -2.364427
