19
Iteration:  3087
 C         0.181139         0.623818         0.208091
 C         1.607383         0.050667         0.136214
 C         2.274237        -0.625438         1.359834
 C         3.675362        -1.176240         0.954793
 C         4.113403        -0.354979        -0.139433
 O         3.914826         0.981742         0.251409
 C         2.716045         1.000824        -0.510877
 C         2.999233        -0.224636        -1.373164
 O         1.763599        -0.948594        -1.045621
 H         0.324066         1.366276         1.003228
 H        -0.296813         1.016012        -0.808953
 H        -0.752428        -0.037766         0.586213
 H         2.543382         0.128044         2.211633
 H         1.513490        -1.350584         1.683345
 H         4.417796        -1.114908         1.742383
 H         3.663400        -2.250360         0.615343
 H         5.159846        -0.579900        -0.404778
 H         2.435656         2.145358        -0.783723
 H         3.348304        -0.160165        -2.434381
