19
Iteration:  3636
 C         0.186592         0.512447         0.281845
 C         1.569046         0.052446         0.172180
 C         2.273308        -0.613895         1.370256
 C         3.511554        -1.326896         0.940836
 C         4.127700        -0.332237        -0.115724
 O         4.031138         1.049010         0.171881
 C         2.720517         1.036614        -0.593870
 C         3.065148        -0.212351        -1.274693
 O         1.804397        -0.778483        -1.061182
 H        -0.129496         1.278941         1.030939
 H        -0.212994         0.867580        -0.705066
 H        -0.498992        -0.422911         0.498603
 H         2.337720         0.000448         2.316506
 H         1.565334        -1.385651         1.749531
 H         4.241600        -1.668893         1.697776
 H         3.281572        -2.331184         0.454731
 H         5.132944        -0.540185        -0.373206
 H         2.165255         1.932667        -1.105165
 H         3.325673        -0.217094        -2.377250
