19
Iteration:  1690charge 0 multiplicity 1
 C         0.157781         0.457125         0.145733
 C         1.604958         0.052117         0.141977
 C         2.329772        -0.495289         1.413396
 C         3.659712        -1.214890         1.060000
 C         4.122407        -0.384037        -0.167483
 O         3.975997         0.980825         0.234143
 C         2.659620         1.000074        -0.545545
 C         3.007733        -0.234497        -1.314795
 O         1.729123        -0.818555        -1.099288
 H         0.046958         1.430341         0.598247
 H        -0.105742         0.477277        -0.991996
 H        -0.516622        -0.167235         0.672101
 H         2.547784         0.274308         2.082040
 H         1.582634        -1.175977         1.872439
 H         4.349693        -1.245780         1.937783
 H         3.416874        -2.293774         0.840472
 H         5.186017        -0.607000        -0.379467
 H         2.504448         2.152619        -0.890240
 H         3.216647        -0.380951        -2.370817
