19
Iteration:  3897
 C         0.198617         0.513558         0.344015
 C         1.611023         0.081974         0.098791
 C         2.097358        -0.641755         1.430873
 C         3.434609        -1.223354         0.931791
 C         4.103980        -0.368259        -0.175178
 O         4.009207         1.104976         0.094389
 C         2.770417         1.022052        -0.561446
 C         3.138697        -0.236355        -1.328116
 O         1.869445        -0.852894        -1.015008
 H         0.238832         1.032438         1.295522
 H        -0.204273         1.077194        -0.425477
 H        -0.549311        -0.340270         0.463418
 H         2.068667        -0.060276         2.471187
 H         1.661167        -1.587314         1.592043
 H         4.085432        -1.376758         1.868427
 H         3.284038        -2.245312         0.529924
 H         4.996034        -0.731504        -0.520183
 H         2.468638         2.043134        -0.869176
 H         3.656622        -0.382962        -2.243300
