19
Iteration:  4377charge 0 multiplicity 1
 C         0.145352         0.459580         0.247641
 C         1.593216         0.097559         0.113113
 C         2.148466        -0.626158         1.501018
 C         3.517770        -1.306350         1.013775
 C         4.112973        -0.430225        -0.109211
 O         4.090921         1.147936        -0.028757
 C         2.673426         1.047104        -0.518051
 C         3.127673        -0.186686        -1.253461
 O         1.826944        -0.835855        -1.045043
 H         0.101091         1.125912         1.196181
 H        -0.232007         1.036020        -0.625279
 H        -0.427765        -0.487688         0.177246
 H         2.292054         0.178455         2.280585
 H         1.422373        -1.269274         1.964567
 H         4.226755        -1.729611         1.803243
 H         3.100918        -2.096662         0.410599
 H         5.149734        -0.735675        -0.258718
 H         2.468333         2.005325        -1.055662
 H         3.408811        -0.442165        -2.326689
