19
Iteration:  3744
 C         0.172149         0.631654         0.258583
 C         1.600367        -0.006497         0.144829
 C         2.147548        -0.618085         1.393106
 C         3.587287        -1.258319         0.922354
 C         4.083641        -0.318509        -0.251228
 O         3.960197         0.993985         0.256247
 C         2.730559         1.019773        -0.458532
 C         3.077936        -0.196186        -1.394522
 O         1.842947        -0.923359        -1.023390
 H         0.362992         1.547801         0.828554
 H        -0.032652         1.093407        -0.722152
 H        -0.693548        -0.050690         0.632652
 H         2.465374         0.009945         2.235280
 H         1.442880        -1.382632         1.623244
 H         4.310845        -0.936212         1.629261
 H         3.678969        -2.288307         0.647513
 H         5.101370        -0.589768        -0.422025
 H         2.322268         2.016043        -0.776709
 H         3.412244        -0.373638        -2.446322
