19
Iteration:  3895charge 0 multiplicity 1
 C         0.198647         0.526828         0.349186
 C         1.612641         0.062844         0.073280
 C         2.111263        -0.634603         1.415576
 C         3.426635        -1.213155         0.921598
 C         4.112234        -0.387002        -0.187556
 O         4.015909         1.108378         0.122915
 C         2.741167         1.042076        -0.572332
 C         3.142990        -0.235442        -1.317379
 O         1.853528        -0.865701        -0.995763
 H         0.244012         1.006139         1.294886
 H        -0.177054         1.163203        -0.427279
 H        -0.509469        -0.338532         0.400782
 H         2.022349        -0.065569         2.446030
 H         1.638047        -1.590826         1.629678
 H         4.104501        -1.447888         1.885211
 H         3.401664        -2.297741         0.632144
 H         5.106091        -0.657334        -0.603950
 H         2.493252         2.036141        -0.902329
 H         3.637429        -0.393002        -2.255701
