19
Iteration:  2218charge 0 multiplicity 1
 C         0.227505         0.572936         0.322951
 C         1.637342         0.033378         0.164029
 C         2.199195        -0.741164         1.361099
 C         3.601303        -1.289706         1.022815
 C         4.195342        -0.299820        -0.090925
 O         3.927832         1.162410         0.095952
 C         2.649803         1.062968        -0.632584
 C         3.106395        -0.315042        -1.320996
 O         1.732364        -0.846373        -1.063647
 H         0.279296         1.423672         1.137158
 H        -0.165952         0.872534        -0.619180
 H        -0.560651        -0.158952         0.748518
 H         2.449158        -0.090762         2.279362
 H         1.361611        -1.475979         1.524164
 H         4.114316        -1.210740         1.994131
 H         3.797147        -2.280346         0.512799
 H         5.223032        -0.537039        -0.350222
 H         2.329530         1.971209        -1.045513
 H         3.221789        -0.619098        -2.292317
