19
Iteration:  1228charge 0 multiplicity 1
 C         0.150014         0.402549         0.196080
 C         1.637480         0.042442         0.109673
 C         2.302991        -0.355369         1.426830
 C         3.549421        -1.210473         0.998768
 C         4.114551        -0.477421        -0.236715
 O         3.963488         0.927699         0.178256
 C         2.640818         1.027874        -0.459281
 C         3.011341        -0.124831        -1.294167
 O         1.835624        -0.912631        -1.080503
 H         0.043752         1.133157         1.011667
 H         0.072450         0.923956        -0.704228
 H        -0.425211        -0.511531         0.451553
 H         2.474262         0.668467         1.877016
 H         1.693852        -0.901533         2.185203
 H         4.290916        -1.011636         1.810472
 H         3.136854        -2.218133         0.833622
 H         5.124470        -0.654908        -0.579317
 H         2.510149         2.063926        -0.638304
 H         3.428291        -0.170916        -2.382405
