19
Iteration:  3009
 C         0.112406         0.570877         0.189155
 C         1.603527         0.052133         0.107617
 C         2.307325        -0.541929         1.350636
 C         3.655967        -1.158883         0.986315
 C         4.076410        -0.416648        -0.227534
 O         3.944458         0.901870         0.251235
 C         2.694468         1.033721        -0.461072
 C         3.023554        -0.211533        -1.353694
 O         1.799739        -0.870693        -1.010166
 H        -0.135553         1.073734         1.091116
 H         0.029406         1.088750        -0.779717
 H        -0.413668        -0.378753         0.322197
 H         2.303889         0.165804         2.230724
 H         1.696634        -1.340853         1.730917
 H         4.499006        -1.013913         1.646852
 H         3.495218        -2.261683         0.925171
 H         5.138269        -0.541111        -0.525565
 H         2.506409         2.142818        -0.815257
 H         3.302976        -0.143342        -2.451433
