19
Iteration:  4859
 C         0.148235         0.504238         0.267064
 C         1.619374         0.132650         0.140628
 C         2.142343        -0.619841         1.387795
 C         3.470351        -1.214395         0.894242
 C         4.188219        -0.360178        -0.243788
 O         4.013610         1.109750         0.123714
 C         2.693005         1.037818        -0.484287
 C         3.094599        -0.210792        -1.276407
 O         1.893448        -0.986609        -0.961290
 H         0.056728         1.493204         0.737938
 H        -0.427380         0.616366        -0.690839
 H        -0.237147        -0.065967         1.100881
 H         2.138773        -0.029640         2.310645
 H         1.396584        -1.437024         1.621352
 H         4.223625        -1.336792         1.622489
 H         3.308430        -2.235487         0.638177
 H         5.218470        -0.733351        -0.426748
 H         2.306686         1.923657        -1.037668
 H         3.253175        -0.169316        -2.370894
