19
Iteration:  3983
 C         0.280582         0.618467         0.221424
 C         1.574464        -0.017284         0.120045
 C         2.156996        -0.710460         1.349107
 C         3.553459        -1.201540         0.903470
 C         4.116192        -0.359617        -0.131332
 O         4.011827         1.129102         0.128946
 C         2.672134         1.065717        -0.471063
 C         3.044671        -0.254685        -1.260548
 O         1.824799        -0.913061        -0.985290
 H         0.309223         1.479119         0.836219
 H         0.003098         0.975830        -0.715603
 H        -0.452614        -0.147417         0.516054
 H         2.201621         0.074594         2.144585
 H         1.565684        -1.443459         1.781931
 H         4.203565        -1.490845         1.768482
 H         3.433010        -2.161213         0.483272
 H         5.024181        -0.682083        -0.558877
 H         2.274713         2.045593        -0.737586
 H         3.288554        -0.563103        -2.261647
