19
Iteration:  1362
 C         0.124803         0.478563         0.288491
 C         1.616447         0.194452         0.060483
 C         2.175870        -0.547304         1.277525
 C         3.516560        -1.217666         0.961022
 C         4.180614        -0.390551        -0.174777
 O         3.973092         1.068708         0.162668
 C         2.722522         1.008661        -0.610830
 C         3.087167        -0.233523        -1.311556
 O         1.857463        -0.942003        -0.848891
 H        -0.124343         1.253699         1.088454
 H        -0.378150         0.745667        -0.639010
 H        -0.469274        -0.357197         0.660883
 H         2.248131        -0.025689         2.300746
 H         1.446002        -1.362394         1.543611
 H         4.257474        -1.227432         1.742825
 H         3.281557        -2.276952         0.538571
 H         5.207697        -0.621454        -0.546487
 H         2.686837         2.005625        -0.904361
 H         3.487785        -0.440450        -2.360044
