19
Iteration:  1162
 C         0.308609         0.725197         0.311536
 C         1.574084        -0.030758         0.092120
 C         2.087757        -0.789590         1.375814
 C         3.575414        -1.204146         1.081291
 C         4.150395        -0.297437        -0.130391
 O         3.936710         1.180408         0.047557
 C         2.683901         1.015780        -0.580106
 C         3.066996        -0.293975        -1.320426
 O         1.831685        -0.994786        -1.041500
 H         0.378189         1.392463         1.144485
 H        -0.052368         1.318948        -0.526372
 H        -0.489622         0.017061         0.696593
 H         2.225250        -0.151347         2.291589
 H         1.387871        -1.653877         1.528329
 H         4.295908        -1.008987         1.938413
 H         3.731518        -2.278081         0.830488
 H         5.186190        -0.460303        -0.304699
 H         2.260315         1.930716        -0.952884
 H         3.431028        -0.351719        -2.381480
