19
Iteration:  3698
 C         0.180935         0.573287         0.211392
 C         1.628644         0.061437         0.158484
 C         2.159369        -0.744790         1.445195
 C         3.607177        -1.272750         0.946874
 C         4.123469        -0.339748        -0.143064
 O         4.037022         1.118276         0.149466
 C         2.730585         1.025833        -0.539865
 C         3.022529        -0.290534        -1.298060
 O         1.755820        -0.789908        -1.047587
 H        -0.128510         1.019940         1.160679
 H        -0.203746         1.363769        -0.539823
 H        -0.244175        -0.450629         0.086839
 H         2.493218         0.126552         2.155538
 H         1.544752        -1.588301         1.786449
 H         4.265721        -1.361150         1.829768
 H         3.366551        -2.246601         0.530802
 H         5.160150        -0.506160        -0.574406
 H         2.345007         2.025615        -0.752208
 H         3.301116        -0.555411        -2.357735
