19
Iteration:  2783
 C         0.167915         0.541430         0.299753
 C         1.628930         0.125207         0.086883
 C         2.185392        -0.634598         1.370659
 C         3.508204        -1.256490         1.005605
 C         4.159663        -0.360159        -0.184840
 O         3.967408         1.065210         0.151288
 C         2.737369         1.038101        -0.558042
 C         3.013554        -0.190762        -1.354320
 O         1.877943        -0.913008        -0.975281
 H         0.073304         1.015032         1.269840
 H        -0.133899         1.057870        -0.549607
 H        -0.394780        -0.409090         0.456576
 H         2.156018        -0.026214         2.350640
 H         1.461430        -1.458541         1.342835
 H         4.250174        -1.168508         1.844503
 H         3.379827        -2.278533         0.591145
 H         5.108333        -0.768686        -0.312267
 H         2.566651         1.995887        -1.052861
 H         3.215352        -0.314213        -2.418105
