19
Iteration:   962charge 0 multiplicity 1
 C         0.191568         0.599722         0.168027
 C         1.583516         0.020922         0.151923
 C         2.257050        -0.721508         1.378232
 C         3.710736        -1.141176         1.051804
 C         4.141398        -0.408383        -0.140690
 O         3.971677         1.080814         0.128784
 C         2.704665         1.024288        -0.493449
 C         3.039693        -0.253945        -1.260035
 O         1.681627        -0.864169        -1.089286
 H         0.176380         1.542356         0.709687
 H        -0.418242         0.600281        -0.787104
 H        -0.516648        -0.068253         0.691303
 H         2.116063         0.018046         2.282055
 H         1.705734        -1.579350         1.795383
 H         4.389033        -0.968602         2.014012
 H         3.727703        -2.145137         0.643667
 H         5.083206        -0.743805        -0.623337
 H         2.342116         2.012439        -1.006870
 H         3.413428        -0.344147        -2.294666
