19
Iteration:  3316charge 0 multiplicity 1
 C         0.182545         0.517073         0.257433
 C         1.630774         0.073873         0.085110
 C         2.225465        -0.642562         1.354839
 C         3.571851        -1.286048         0.972373
 C         4.073444        -0.395399        -0.149137
 O         3.985549         1.087776         0.180703
 C         2.733217         1.052056        -0.552362
 C         3.097801        -0.219639        -1.296914
 O         1.775998        -0.847866        -0.978503
 H        -0.102866         1.076419         1.144090
 H        -0.211511         1.022257        -0.659988
 H        -0.505080        -0.335296         0.355986
 H         2.343074         0.247374         2.082470
 H         1.509622        -1.314950         1.817483
 H         4.357981        -1.408325         1.726827
 H         3.432587        -2.257808         0.419430
 H         5.084842        -0.602009        -0.369942
 H         2.429604         2.009052        -1.129513
 H         3.315142        -0.237103        -2.347171
