19
Iteration:  3435
 C         0.222899         0.530856         0.315374
 C         1.623993         0.090138         0.076830
 C         2.111754        -0.666574         1.340085
 C         3.493323        -1.192170         0.951230
 C         4.200431        -0.301615        -0.156165
 O         4.029798         1.063758         0.143447
 C         2.677109         1.047293        -0.532782
 C         3.014690        -0.214694        -1.313384
 O         1.882381        -0.967594        -0.989585
 H         0.390747         1.274448         1.066292
 H        -0.425679         0.870263        -0.490541
 H        -0.455339        -0.080518         0.853671
 H         2.105949        -0.106084         2.255203
 H         1.484428        -1.520005         1.476813
 H         4.017882        -1.343497         1.869619
 H         3.272952        -2.131469         0.522002
 H         5.146921        -0.626355        -0.519212
 H         2.430612         1.923737        -1.011494
 H         3.330314        -0.089489        -2.332749
