19
Iteration:  4580charge 0 multiplicity 1
 C         0.125768         0.586928         0.193347
 C         1.614444         0.137843         0.129732
 C         2.289072        -0.620181         1.369612
 C         3.610336        -1.286623         0.927575
 C         4.253970        -0.424751        -0.147691
 O         3.900754         1.143059         0.128423
 C         2.703395         1.031853        -0.573452
 C         3.006746        -0.299966        -1.266214
 O         1.786980        -0.888334        -0.895519
 H        -0.140846         0.907640         1.222319
 H         0.007361         1.334253        -0.615650
 H        -0.623734        -0.279808        -0.068544
 H         2.349778         0.108079         2.226702
 H         1.506301        -1.435704         1.642697
 H         4.127224        -1.600532         1.846728
 H         3.358765        -2.274996         0.522817
 H         5.360861        -0.787252        -0.366462
 H         2.494454         2.044994        -1.011419
 H         3.328706        -0.359081        -2.388945
