19
Iteration:  4411
 C         0.137489         0.447400         0.199477
 C         1.591795         0.136669         0.091751
 C         2.207164        -0.477471         1.406263
 C         3.596704        -1.145507         0.997453
 C         4.127616        -0.463029        -0.228440
 O         3.997531         0.973002         0.277189
 C         2.780298         1.063281        -0.531375
 C         3.028550        -0.220836        -1.356619
 O         1.767690        -0.893778        -1.004887
 H        -0.132422         0.826615         1.252575
 H        -0.312156         1.119164        -0.581805
 H        -0.326464        -0.528589         0.267617
 H         2.362895         0.283998         2.149824
 H         1.682719        -1.357028         1.738432
 H         4.525013        -1.220914         1.564669
 H         3.336679        -2.163541         0.758153
 H         5.057606        -0.640104        -0.660304
 H         2.728102         2.031333        -1.063373
 H         3.215066        -0.474313        -2.392680
