19
Iteration:  2894
 C         0.174535         0.517623         0.179332
 C         1.563444         0.021106         0.200825
 C         2.259148        -0.639378         1.385270
 C         3.585936        -1.190085         0.941115
 C         4.125974        -0.405489        -0.171466
 O         4.002485         1.077219         0.178127
 C         2.678369         0.939346        -0.514320
 C         3.086303        -0.185468        -1.305872
 O         1.775626        -0.824840        -1.040189
 H         0.034776         1.541622         0.813478
 H        -0.150683         0.886225        -0.868895
 H        -0.662882        -0.074325         0.705035
 H         2.412085         0.133055         2.192252
 H         1.476136        -1.382413         1.884203
 H         4.332606        -1.168385         1.885562
 H         3.571881        -2.262958         0.586870
 H         5.117174        -0.803075        -0.528866
 H         2.277538         1.901052        -0.815717
 H         3.475022        -0.272244        -2.313061
