19
Iteration:   196charge 0 multiplicity 1
 C         0.240990         0.549548         0.259275
 C         1.611453         0.028602         0.061585
 C         2.271732        -0.455815         1.346912
 C         3.528367        -1.202104         1.055463
 C         4.162105        -0.395797        -0.082655
 O         3.879424         1.076693         0.202783
 C         2.642034         0.929449        -0.621216
 C         3.122548        -0.300022        -1.269065
 O         1.780788        -0.908618        -1.096663
 H         0.151586         1.488313         0.975018
 H        -0.133238         0.857969        -0.738236
 H        -0.424326        -0.277657         0.581774
 H         2.597227         0.445691         1.925598
 H         1.688893        -1.123291         2.005123
 H         4.237114        -1.260216         1.857780
 H         3.324625        -2.300914         0.763999
 H         5.182708        -0.557763        -0.360348
 H         2.355527         1.905123        -1.153054
 H         3.517588        -0.486907        -2.233748
