19
Iteration:  1027charge 0 multiplicity 1
 C         0.178100         0.614623         0.275988
 C         1.575869        -0.000740         0.098110
 C         2.248154        -0.685129         1.308866
 C         3.688762        -1.168058         1.115950
 C         4.211850        -0.359809        -0.046169
 O         3.911739         1.111105         0.105231
 C         2.720908         0.955785        -0.603025
 C         3.006203        -0.291891        -1.299336
 O         1.682065        -0.869876        -1.106948
 H         0.183765         1.081718         1.322962
 H         0.010593         1.441410        -0.539234
 H        -0.602903        -0.192624         0.160511
 H         2.491368         0.168088         2.010439
 H         1.651628        -1.501619         1.738969
 H         4.393888        -1.218877         2.076306
 H         3.804963        -2.266454         0.910099
 H         5.319730        -0.441210        -0.237281
 H         2.297771         1.977676        -0.987236
 H         3.397910        -0.457445        -2.312495
