19
Iteration:  1560charge 0 multiplicity 1
 C         0.152277         0.432219         0.139591
 C         1.620297         0.094809         0.150736
 C         2.182021        -0.609335         1.518866
 C         3.537752        -1.253561         1.044210
 C         4.162629        -0.344890        -0.102981
 O         4.066210         1.115885         0.007987
 C         2.757774         1.029343        -0.521321
 C         2.987454        -0.210585        -1.295327
 O         1.798329        -0.892568        -1.030766
 H        -0.009670         1.179149         0.886363
 H        -0.098424         1.108328        -0.732729
 H        -0.484530        -0.398203         0.247630
 H         2.226284         0.210422         2.162738
 H         1.493334        -1.348159         1.921197
 H         4.200989        -1.452309         1.814310
 H         3.160733        -2.223036         0.610051
 H         5.196886        -0.721268        -0.303127
 H         2.461932         2.016593        -0.810380
 H         3.240113        -0.369039        -2.312393
