19
Iteration:  1829
 C         0.144761         0.420904         0.243502
 C         1.598142         0.135943         0.130945
 C         2.252349        -0.533411         1.321154
 C         3.501915        -1.337234         1.010538
 C         4.157178        -0.355536        -0.122401
 O         4.014573         1.111265         0.142859
 C         2.747378         1.077711        -0.621349
 C         3.054414        -0.255382        -1.309340
 O         1.806530        -0.838032        -0.934383
 H        -0.123525         1.210660         0.988971
 H        -0.346030         0.620767        -0.747807
 H        -0.305479        -0.502076         0.671317
 H         2.409781         0.046016         2.282430
 H         1.378364        -1.242310         1.488322
 H         4.197589        -1.617554         1.829500
 H         3.442377        -2.230609         0.429503
 H         5.080673        -0.664512        -0.538631
 H         2.477034         2.000205        -0.888773
 H         3.199805        -0.589156        -2.356803
