19
Iteration:  3914
 C         0.165928         0.498138         0.320625
 C         1.652154         0.082535         0.184162
 C         2.131170        -0.678640         1.368312
 C         3.474592        -1.221061         0.994886
 C         4.146395        -0.411210        -0.094913
 O         4.090044         1.078127         0.091252
 C         2.706670         1.072391        -0.559673
 C         3.057040        -0.196884        -1.314067
 O         1.817720        -0.860610        -1.091455
 H         0.004921         1.315103         1.050574
 H        -0.251205         0.855562        -0.687973
 H        -0.306108        -0.422561         0.614152
 H         2.207525         0.071580         2.118153
 H         1.250926        -1.241838         1.772682
 H         4.178290        -1.615800         1.738997
 H         3.448410        -2.245646         0.536791
 H         5.302952        -0.493945        -0.180658
 H         2.373000         2.002544        -1.019842
 H         3.282297        -0.217083        -2.407129
