19
Iteration:  2517
 C         0.163115         0.592757         0.159906
 C         1.633828         0.068670         0.203256
 C         2.300002        -0.746463         1.363740
 C         3.708420        -1.257579         1.067290
 C         4.124283        -0.352474        -0.163013
 O         3.965934         1.099097         0.133034
 C         2.655560         0.991636        -0.447248
 C         2.926570        -0.210497        -1.322669
 O         1.743465        -0.870065        -1.097259
 H        -0.044152         1.290136         0.890854
 H         0.056148         1.009765        -0.883628
 H        -0.590087        -0.148246         0.199740
 H         2.417411        -0.052537         2.301236
 H         1.692880        -1.483160         1.854426
 H         4.374228        -1.126687         1.955216
 H         3.932580        -2.387432         0.752989
 H         5.101941        -0.424417        -0.549375
 H         2.249156         2.042045        -0.709582
 H         3.330585        -0.188686        -2.393588
