19
Iteration:   294
 C         0.198912         0.511003         0.133802
 C         1.619980        -0.015295         0.127020
 C         2.271750        -0.483483         1.475981
 C         3.590157        -1.175504         1.126515
 C         4.119948        -0.410995        -0.120025
 O         4.004927         1.027250         0.104077
 C         2.611433         0.987550        -0.548039
 C         3.070717        -0.263234        -1.247465
 O         1.757888        -0.841343        -1.151081
 H        -0.044483         1.212353         1.051257
 H        -0.181308         0.943789        -0.793859
 H        -0.466976        -0.362738         0.223734
 H         2.453611         0.512844         1.942274
 H         1.655728        -1.173576         2.076870
 H         4.342415        -1.344912         1.920744
 H         3.426705        -2.301150         0.741401
 H         5.114370        -0.594581        -0.433938
 H         2.264098         2.010625        -0.808088
 H         3.452800        -0.449848        -2.219176
