19
Iteration:  3514
 C         0.157617         0.512862         0.298921
 C         1.639943         0.061064         0.082057
 C         2.132606        -0.585246         1.400823
 C         3.527621        -1.249089         0.893991
 C         4.105076        -0.356365        -0.175937
 O         3.998844         1.026174         0.147066
 C         2.744837         1.121790        -0.535966
 C         3.038628        -0.153921        -1.308050
 O         1.879515        -0.984429        -0.956195
 H        -0.005886         1.017080         1.211685
 H        -0.260238         1.326204        -0.309423
 H        -0.390838        -0.456648         0.197813
 H         2.274076         0.126267         2.265394
 H         1.465238        -1.377521         1.649979
 H         4.287763        -1.345611         1.684463
 H         3.340675        -2.242427         0.445581
 H         5.086823        -0.649053        -0.376487
 H         2.598463         2.126883        -1.019944
 H         3.414198        -0.179803        -2.344835
