19
Iteration:  2224
 C         0.250003         0.604746         0.316108
 C         1.611569         0.003384         0.135023
 C         2.230723        -0.748503         1.348928
 C         3.616343        -1.260486         1.012491
 C         4.157568        -0.322161        -0.115964
 O         3.884361         1.124103         0.087807
 C         2.639845         0.988943        -0.558250
 C         3.126955        -0.278389        -1.310461
 O         1.745780        -0.836409        -1.021824
 H         0.208601         1.420413         0.946521
 H        -0.173182         1.060263        -0.643765
 H        -0.410621        -0.136936         0.669628
 H         2.236659         0.040940         2.069239
 H         1.366369        -1.333598         1.734007
 H         4.271132        -1.138893         1.891747
 H         3.787880        -2.246177         0.520120
 H         5.244461        -0.454867        -0.368315
 H         2.401049         2.038046        -1.021219
 H         3.401902        -0.475635        -2.461355
