19
Iteration:  2084
 C         0.221708         0.521917         0.309285
 C         1.626733        -0.012779         0.134008
 C         2.225601        -0.659295         1.347905
 C         3.609381        -1.158762         1.078563
 C         4.192965        -0.377319        -0.147541
 O         3.955386         1.096547         0.186639
 C         2.668319         1.055562        -0.627295
 C         3.090282        -0.234509        -1.345370
 O         1.668708        -0.898916        -1.131165
 H         0.238714         1.105758         1.278001
 H        -0.269517         1.226174        -0.457381
 H        -0.336154        -0.414345         0.577221
 H         2.273935         0.216422         2.027240
 H         1.501673        -1.395802         1.875597
 H         4.255777        -0.927154         1.970329
 H         3.602474        -2.294954         0.904107
 H         5.244718        -0.721699        -0.381093
 H         2.514442         2.035951        -0.969396
 H         3.380521        -0.382200        -2.387933
