19
Iteration:  2172charge 0 multiplicity 1
 C         0.159747         0.507334         0.253991
 C         1.575705         0.039235         0.168374
 C         2.265210        -0.577884         1.398705
 C         3.595440        -1.202443         0.991229
 C         4.138719        -0.426872        -0.237392
 O         3.978153         1.024727         0.195705
 C         2.699608         1.009474        -0.514494
 C         2.963330        -0.167132        -1.392184
 O         1.856561        -0.905138        -1.032630
 H         0.136346         1.323482         1.083220
 H        -0.279963         0.892645        -0.658251
 H        -0.593646        -0.288606         0.615651
 H         2.194443         0.378904         1.953449
 H         1.485488        -1.315411         1.827684
 H         4.393031        -0.845947         1.691414
 H         3.566487        -2.373272         0.877365
 H         5.205465        -0.429802        -0.568541
 H         2.479485         2.001727        -0.726236
 H         3.303069        -0.215620        -2.397943
