19
Iteration:   260
 C         0.132467         0.574670         0.134084
 C         1.645696         0.126690         0.145221
 C         2.049592        -0.677243         1.337599
 C         3.570556        -1.077344         1.016838
 C         4.171331        -0.358068        -0.225529
 O         4.096557         1.066174         0.108027
 C         2.747696         1.080586        -0.570170
 C         3.016462        -0.311125        -1.313710
 O         1.837560        -0.983499        -0.811050
 H        -0.166604         1.299194         1.061922
 H        -0.191026         0.916395        -0.784298
 H        -0.213940        -0.384987         0.421313
 H         1.740757        -0.306297         2.325550
 H         1.482270        -1.639815         1.234912
 H         4.127353        -0.805328         1.952853
 H         3.499248        -2.261138         0.809792
 H         5.193737        -0.640980        -0.508873
 H         2.320837         2.088672        -0.902207
 H         3.281857        -0.654303        -2.323941
