19
Iteration:  4797
 C         0.171762         0.506293         0.252144
 C         1.598682         0.044995         0.107953
 C         2.290819        -0.596132         1.405935
 C         3.661772        -1.123216         1.065533
 C         4.124168        -0.428353        -0.179455
 O         3.887832         0.978988         0.190034
 C         2.761637         1.042198        -0.553791
 C         2.982679        -0.263316        -1.360532
 O         1.755925        -0.849568        -1.063354
 H         0.091731         0.873529         1.264648
 H         0.015156         1.360363        -0.389232
 H        -0.622907        -0.176674        -0.140178
 H         2.390144         0.294719         2.017887
 H         1.669065        -1.406214         1.924319
 H         4.428351        -0.907365         1.873323
 H         3.634178        -2.274874         0.724722
 H         5.222037        -0.431457        -0.350805
 H         2.571961         2.133486        -1.004100
 H         3.212773        -0.502475        -2.473923
