19
Iteration:  1298charge 0 multiplicity 1
 C         0.226452         0.673386         0.259883
 C         1.552933        -0.022812         0.168381
 C         2.159648        -0.704984         1.362962
 C         3.662683        -1.086237         1.044038
 C         4.132169        -0.375049        -0.239783
 O         3.933159         1.070584         0.179487
 C         2.732795         1.029264        -0.573543
 C         3.059056        -0.269475        -1.343112
 O         1.799620        -0.991470        -1.030225
 H         0.249277         1.377991         1.115495
 H         0.074368         1.224262        -0.703966
 H        -0.543096        -0.040327         0.504796
 H         2.108116        -0.110720         2.344979
 H         1.426994        -1.535429         1.577692
 H         4.168668        -0.717602         1.888809
 H         3.743855        -2.194081         0.856240
 H         5.194881        -0.550707        -0.525587
 H         2.289598         1.939295        -0.896589
 H         3.270617        -0.365434        -2.371094
