19
Iteration:  3123charge 0 multiplicity 1
 C         0.217081         0.521634         0.146955
 C         1.624919         0.067747         0.170163
 C         2.201783        -0.698313         1.390850
 C         3.605660        -1.228800         0.986006
 C         4.102255        -0.406974        -0.175882
 O         4.027543         1.099836         0.120096
 C         2.703818         1.038547        -0.446046
 C         2.985810        -0.190883        -1.337116
 O         1.748810        -0.885907        -1.008230
 H         0.095346         1.326475         0.920005
 H         0.114946         1.143389        -0.752363
 H        -0.536874        -0.282941         0.382953
 H         2.409037         0.022550         2.201318
 H         1.585245        -1.427674         1.886130
 H         4.278813        -1.087805         1.836510
 H         3.724538        -2.230682         0.662473
 H         5.114869        -0.761205        -0.323784
 H         2.245126         1.987442        -0.746801
 H         3.266392        -0.120486        -2.350609
