19
Iteration:  2376charge 0 multiplicity 1
 C         0.220978         0.632167         0.175792
 C         1.612933         0.108387         0.195726
 C         2.227103        -0.770085         1.359164
 C         3.686233        -1.221437         0.962814
 C         4.165148        -0.340304        -0.108345
 O         3.995687         1.129394         0.100329
 C         2.598027         1.001665        -0.450897
 C         2.979691        -0.224763        -1.251369
 O         1.767434        -0.929048        -1.043573
 H         0.100742         1.358078         0.963349
 H        -0.093984         0.968522        -0.909452
 H        -0.482553        -0.186891         0.446160
 H         2.297541        -0.200268         2.270974
 H         1.661483        -1.631531         1.541741
 H         4.344849        -1.478365         1.764208
 H         3.503176        -2.149748         0.524406
 H         5.195711        -0.494827        -0.454436
 H         2.112257         1.917390        -0.951529
 H         3.286912        -0.302821        -2.367847
