19
Iteration:  1989
 C         0.189990         0.511615         0.185884
 C         1.584787         0.041545         0.115447
 C         2.299493        -0.579307         1.393562
 C         3.616379        -1.236601         0.970034
 C         4.112220        -0.394548        -0.169260
 O         3.940883         1.075264         0.228658
 C         2.719735         1.023106        -0.535493
 C         3.016575        -0.250873        -1.266726
 O         1.756602        -0.860000        -1.042213
 H         0.114631         1.301912         0.988638
 H        -0.131528         0.900404        -0.703355
 H        -0.412289        -0.435406         0.362837
 H         2.721592         0.317392         1.908753
 H         1.738096        -1.110396         2.140030
 H         4.286605        -1.474442         1.784888
 H         3.430075        -2.125574         0.385480
 H         5.147399        -0.419099        -0.528799
 H         2.125378         1.885110        -1.062518
 H         3.363358        -0.434773        -2.249632
