19
Iteration:  4558charge 0 multiplicity 1
 C         0.214216         0.497655         0.236313
 C         1.654984         0.171142         0.185991
 C         2.150262        -0.586201         1.372335
 C         3.502955        -1.194289         0.905907
 C         4.075972        -0.305930        -0.219509
 O         4.033468         1.048056         0.169947
 C         2.715653         0.987009        -0.576261
 C         3.072128        -0.265800        -1.328012
 O         1.827421        -0.924168        -0.902912
 H        -0.019417         0.923596         1.226565
 H        -0.153554         1.055658        -0.637909
 H        -0.408970        -0.468652         0.260110
 H         2.295411         0.139532         2.219988
 H         1.371156        -1.343465         1.730717
 H         4.146323        -1.435013         1.752943
 H         3.269301        -2.164229         0.447567
 H         5.207404        -0.605973        -0.404415
 H         2.538873         1.974494        -1.020195
 H         3.366288        -0.468332        -2.437882
