19
Iteration:  1239
 C         0.214474         0.421395         0.189301
 C         1.626734        -0.003152         0.149954
 C         2.294008        -0.382062         1.481404
 C         3.509450        -1.188536         1.038863
 C         4.099559        -0.413252        -0.164278
 O         3.994451         0.997746         0.159833
 C         2.694377         1.037954        -0.476611
 C         3.015359        -0.208366        -1.383859
 O         1.796691        -0.889781        -1.120030
 H         0.026404         1.052874         1.071324
 H        -0.345453         0.820284        -0.607699
 H        -0.464321        -0.462597         0.316837
 H         2.772309         0.529971         1.937442
 H         1.680660        -0.962849         2.207653
 H         4.246895        -1.542717         1.800483
 H         3.279075        -2.197483         0.637993
 H         5.083143        -0.772587        -0.443244
 H         2.237061         1.963629        -0.762143
 H         3.396348        -0.096222        -2.488668
