19
Iteration:  1864charge 0 multiplicity 1
 C         0.199509         0.559451         0.294196
 C         1.619619         0.005108         0.104757
 C         2.243584        -0.526477         1.378474
 C         3.558280        -1.239772         0.953869
 C         4.187643        -0.338837        -0.143648
 O         3.919568         1.054898         0.188665
 C         2.630746         0.978797        -0.471120
 C         3.062510        -0.251802        -1.376162
 O         1.834993        -0.918030        -1.068015
 H         0.356905         1.471803         0.860002
 H        -0.192821         0.868426        -0.784271
 H        -0.491864        -0.114023         0.760808
 H         2.348280         0.342667         2.061877
 H         1.471668        -1.246627         1.900953
 H         4.232534        -1.252591         1.816060
 H         3.193565        -2.238437         0.625009
 H         5.135665        -0.718704        -0.532542
 H         2.297249         1.925025        -0.822611
 H         3.570483        -0.240385        -2.373649
