19
Iteration:  3870charge 0 multiplicity 1
 C         0.175952         0.620151         0.247102
 C         1.623321         0.147622         0.126183
 C         2.261661        -0.590737         1.263227
 C         3.660905        -1.234012         0.966921
 C         4.137751        -0.347022        -0.096797
 O         3.890668         0.996584         0.214576
 C         2.728887         0.946910        -0.484099
 C         2.949445        -0.263971        -1.340017
 O         1.780818        -0.920388        -1.059768
 H        -0.006383         1.025177         1.263955
 H         0.028771         1.439819        -0.545797
 H        -0.515450        -0.166132         0.015916
 H         2.442804         0.125273         2.054120
 H         1.656574        -1.356401         1.839237
 H         4.254450        -1.308920         1.939879
 H         3.818603        -2.341983         0.716060
 H         5.249106        -0.553386        -0.476740
 H         2.482017         1.971854        -0.782951
 H         3.400480        -0.176977        -2.364951
