19
Iteration:  4930charge 0 multiplicity 1
 C         0.253204         0.544196         0.255973
 C         1.627812         0.059134         0.077033
 C         2.156385        -0.655300         1.374584
 C         3.542552        -1.188520         0.937054
 C         4.118922        -0.353211        -0.175537
 O         3.976237         1.071484         0.150641
 C         2.681513         1.049034        -0.528849
 C         3.034846        -0.234549        -1.319969
 O         1.827892        -0.953762        -0.985738
 H         0.378693         1.340918         1.011886
 H        -0.303492         0.890060        -0.584741
 H        -0.305286        -0.163245         0.870027
 H         2.258862         0.037045         2.271541
 H         1.378441        -1.360959         1.594450
 H         4.171563        -1.087297         1.893577
 H         3.752065        -2.270501         0.674165
 H         5.136890        -0.494438        -0.540299
 H         2.315228         2.118779        -0.593874
 H         3.384518        -0.318196        -2.356698
