19
Iteration:  3141
 C         0.153450         0.541517         0.275382
 C         1.583739         0.029754         0.161248
 C         2.135843        -0.613403         1.350028
 C         3.562351        -1.201089         0.937182
 C         4.149463        -0.327295        -0.228703
 O         4.026837         1.026494         0.153407
 C         2.770018         1.069069        -0.541485
 C         3.053398        -0.226572        -1.287972
 O         1.865537        -0.908310        -0.930370
 H        -0.130810         1.101568         1.145271
 H        -0.451922         1.123926        -0.548823
 H        -0.508124        -0.423701         0.330221
 H         2.141559         0.017608         2.334859
 H         1.409474        -1.453877         1.296055
 H         4.299230        -1.334963         1.729457
 H         3.126428        -2.163729         0.519572
 H         5.106302        -0.588418        -0.707437
 H         2.441800         2.138782        -0.966645
 H         3.415876        -0.342435        -2.356139
