19
Iteration:  1998
 C         0.176762         0.510894         0.152497
 C         1.615633         0.029413         0.224303
 C         2.260798        -0.596435         1.415977
 C         3.595747        -1.291907         0.947350
 C         4.136144        -0.274690        -0.136245
 O         3.963286         1.102016         0.127780
 C         2.684533         0.982677        -0.515320
 C         3.058865        -0.259786        -1.317542
 O         1.776615        -0.862426        -1.018033
 H         0.009420         1.298038         0.964820
 H        -0.058841         0.949891        -0.821858
 H        -0.561880        -0.227898         0.603708
 H         2.623697         0.222419         2.097508
 H         1.482612        -1.233119         1.997839
 H         4.309138        -1.620227         1.698628
 H         3.308388        -2.263546         0.502772
 H         5.146722        -0.708102        -0.304767
 H         2.271866         1.898601        -1.073951
 H         3.306389        -0.121050        -2.345282
