19
Iteration:  1453
 C         0.187664         0.569578         0.242389
 C         1.622990         0.143539         0.169559
 C         2.095224        -0.747970         1.348721
 C         3.572578        -1.141872         1.025951
 C         4.154185        -0.372853        -0.138869
 O         4.006528         1.122756         0.027646
 C         2.736222         1.003982        -0.562709
 C         3.050602        -0.268704        -1.277797
 O         1.847756        -0.894440        -0.953613
 H         0.185767         1.164395         1.134817
 H        -0.082130         1.040498        -0.786156
 H        -0.551310        -0.251883         0.406245
 H         1.832058        -0.249877         2.399148
 H         1.429940        -1.691582         1.379618
 H         4.082167        -1.079100         2.010811
 H         3.601710        -2.303220         0.782898
 H         5.152849        -0.762703        -0.480005
 H         2.347779         1.822005        -1.091043
 H         3.322084        -0.333798        -2.301647
