19
Iteration:  4654charge 0 multiplicity 1
 C         0.131373         0.529729         0.275181
 C         1.594962         0.099612         0.169884
 C         2.172791        -0.707701         1.338407
 C         3.568648        -1.164526         0.946469
 C         4.162411        -0.392356        -0.147121
 O         4.033668         1.172715         0.151530
 C         2.872830         1.038686        -0.582822
 C         3.029299        -0.347640        -1.279497
 O         1.725828        -0.833251        -1.001046
 H         0.058884         1.454234         0.860089
 H        -0.262956         0.507461        -0.775897
 H        -0.539487        -0.235222         0.830270
 H         2.220955        -0.107931         2.199720
 H         1.465525        -1.556376         1.630320
 H         4.147296        -1.305290         1.859086
 H         3.490912        -2.293294         0.650044
 H         5.155687        -0.588959        -0.475058
 H         2.270333         1.804921        -1.173109
 H         3.473657        -0.541251        -2.330670
