19
Iteration:  2171charge 0 multiplicity 1
 C         0.154702         0.515015         0.249890
 C         1.581654         0.027693         0.173450
 C         2.270557        -0.569380         1.406421
 C         3.604790        -1.200980         0.997927
 C         4.125452        -0.429720        -0.239798
 O         3.970709         1.025285         0.197967
 C         2.706006         1.006349        -0.505609
 C         2.962565        -0.161184        -1.390279
 O         1.852807        -0.908182        -1.039427
 H         0.120920         1.268349         1.055558
 H        -0.284974         0.883154        -0.693708
 H        -0.575138        -0.256999         0.584692
 H         2.215187         0.367770         1.928066
 H         1.496548        -1.294248         1.833506
 H         4.424243        -0.885306         1.703534
 H         3.587020        -2.363034         0.854618
 H         5.196886        -0.455497        -0.583424
 H         2.512020         2.030814        -0.747418
 H         3.280309        -0.199883        -2.448916
