19
Iteration:   622
 C         0.084360         0.368305         0.137470
 C         1.603376         0.153473         0.158553
 C         2.162668        -0.462324         1.360743
 C         3.443526        -1.255778         0.948504
 C         4.138514        -0.435604        -0.270152
 O         4.073263         1.032670         0.077310
 C         2.745671         1.117676        -0.535481
 C         3.097519        -0.190513        -1.294049
 O         1.903744        -0.915815        -0.760348
 H        -0.251528         1.202414         0.824470
 H        -0.140634         0.590228        -0.876616
 H        -0.569194        -0.426289         0.486957
 H         2.476303         0.092519         2.210737
 H         1.446960        -1.179652         1.760765
 H         4.158763        -1.306582         1.716406
 H         3.148620        -2.203978         0.570996
 H         5.147164        -0.728300        -0.444249
 H         2.452128         2.137884        -0.747220
 H         3.218216        -0.359485        -2.309117
