19
Iteration:  3857charge 0 multiplicity 1
 C         0.195404         0.662530         0.163051
 C         1.579028        -0.004151         0.127650
 C         2.345638        -0.617160         1.446569
 C         3.702035        -1.242020         1.003699
 C         4.186592        -0.414243        -0.202176
 O         3.884791         0.998721         0.276498
 C         2.643803         1.025921        -0.524696
 C         3.062778        -0.248652        -1.313374
 O         1.688377        -0.854628        -1.093435
 H        -0.138736         1.082930         1.156191
 H         0.084368         1.461817        -0.611510
 H        -0.535212        -0.126932        -0.082246
 H         2.505290         0.167778         2.096260
 H         1.650452        -1.391122         1.817882
 H         4.377267        -1.079317         1.794621
 H         3.463086        -2.251331         0.663475
 H         5.246165        -0.426459        -0.594652
 H         2.272845         2.018670        -0.884051
 H         3.332705        -0.484659        -2.362657
