19
Iteration:  3257
 C         0.244302         0.567662         0.248029
 C         1.637693         0.046804         0.175106
 C         2.169954        -0.694290         1.390411
 C         3.609372        -1.298637         1.006833
 C         4.149381        -0.358258        -0.123820
 O         3.977005         1.099438         0.102961
 C         2.645665         1.064694        -0.521344
 C         3.012287        -0.228260        -1.288427
 O         1.804135        -0.848241        -1.079073
 H         0.199288         1.613089         0.878622
 H        -0.066670         0.961919        -0.779047
 H        -0.503547        -0.224275         0.569844
 H         2.125419         0.007659         2.202331
 H         1.422083        -1.558092         1.583236
 H         4.359563        -1.467775         1.825272
 H         3.593401        -2.260669         0.436765
 H         5.278000        -0.661437        -0.124088
 H         2.244059         1.977566        -0.884877
 H         3.244207        -0.371852        -2.405250
