19
Iteration:   150charge 0 multiplicity 1
 C         0.132639         0.442999         0.055339
 C         1.636945         0.098896         0.195882
 C         2.131761        -0.556141         1.420963
 C         3.565635        -1.139432         1.066106
 C         4.167282        -0.394539        -0.196437
 O         4.144931         1.099245         0.039133
 C         2.718279         0.989077        -0.499627
 C         3.038328        -0.289380        -1.277990
 O         1.733276        -0.882417        -0.900670
 H        -0.291285         1.304599         0.858267
 H        -0.113803         0.884138        -0.878725
 H        -0.464227        -0.456029         0.125130
 H         2.263246         0.178076         2.238791
 H         1.386520        -1.358970         1.739608
 H         4.292633        -1.199775         1.942704
 H         3.483251        -2.285240         0.752684
 H         5.138754        -0.783909        -0.455481
 H         2.246358         1.866996        -1.042918
 H         3.340492        -0.205023        -2.335614
