19
Iteration:  4707
 C         0.236074         0.573356         0.224863
 C         1.568833        -0.014187         0.047497
 C         2.219831        -0.489411         1.418778
 C         3.662441        -1.171929         0.952399
 C         4.174200        -0.349436        -0.270415
 O         3.931361         0.949556         0.330002
 C         2.652649         1.008431        -0.481213
 C         3.036993        -0.236453        -1.409890
 O         1.779306        -0.952439        -0.990667
 H         0.452415         1.522481         0.632791
 H        -0.242699         0.786931        -0.745134
 H        -0.471832         0.027033         0.758741
 H         2.317794         0.376994         2.057044
 H         1.488538        -1.174874         1.901492
 H         4.407828        -1.189578         1.758467
 H         3.269277        -2.202058         0.645423
 H         5.215377        -0.507803        -0.476262
 H         2.287549         1.996540        -0.938869
 H         3.308726        -0.215770        -2.474841
