19
Iteration:   499charge 0 multiplicity 1
 C         0.134026         0.520119         0.082763
 C         1.623695         0.076385         0.144033
 C         2.250634        -0.609356         1.388816
 C         3.716885        -1.092307         1.104384
 C         4.142946        -0.489269        -0.187607
 O         3.961886         1.044642         0.202318
 C         2.716234         1.006170        -0.540832
 C         2.977141        -0.318426        -1.312385
 O         1.723339        -0.811582        -1.025834
 H        -0.200743         1.243117         0.971503
 H        -0.107169         1.015996        -0.831232
 H        -0.571988        -0.265742         0.254013
 H         2.240622         0.132311         2.180240
 H         1.703562        -1.509359         1.815998
 H         4.492333        -0.824555         1.843264
 H         3.724658        -2.114070         0.942615
 H         5.160349        -0.744249        -0.636677
 H         2.432091         2.034285        -0.875919
 H         3.437507        -0.587459        -2.309247
