19
Iteration:  2904charge 0 multiplicity 1
 C         0.173580         0.579812         0.241481
 C         1.627324         0.016091         0.083436
 C         2.231105        -0.604636         1.411474
 C         3.609190        -1.205680         1.005797
 C         4.149065        -0.425228        -0.224625
 O         3.961218         1.036068         0.285005
 C         2.679373         0.992498        -0.532670
 C         3.083827        -0.185562        -1.374734
 O         1.733040        -0.886286        -1.057224
 H         0.104784         1.554460         0.911643
 H        -0.247710         0.681273        -0.858823
 H        -0.462398        -0.293004         0.720593
 H         2.466496         0.244415         2.107718
 H         1.551326        -1.400048         1.868725
 H         4.387521        -1.004535         1.825458
 H         3.514428        -2.295540         0.816297
 H         5.175939        -0.518069        -0.573240
 H         2.409721         1.930706        -1.032285
 H         3.364201        -0.079028        -2.423428
