19
Iteration:   307charge 0 multiplicity 1
 C         0.211181         0.476081         0.219077
 C         1.634177         0.032502         0.041531
 C         2.297797        -0.377138         1.418210
 C         3.566254        -1.185752         1.061848
 C         4.125185        -0.413742        -0.118227
 O         3.887619         1.025175         0.257209
 C         2.737328         0.964166        -0.519915
 C         3.049675        -0.272022        -1.405389
 O         1.752801        -0.944667        -1.118364
 H         0.128925         1.149596         1.054400
 H         0.006093         1.089505        -0.749612
 H        -0.475220        -0.423824         0.372641
 H         2.610002         0.572342         1.940468
 H         1.575327        -0.810449         2.085709
 H         4.304723        -1.168471         1.850494
 H         3.236731        -2.215546         0.784313
 H         5.146967        -0.660339        -0.321154
 H         2.386057         1.923239        -0.871546
 H         3.387424        -0.212635        -2.407763
