19
Iteration:  3876charge 0 multiplicity 1
 C         0.200203         0.596721         0.275794
 C         1.618628         0.130310         0.126781
 C         2.184070        -0.621391         1.244284
 C         3.638513        -1.252306         0.976456
 C         4.152146        -0.350308        -0.128786
 O         3.945913         1.029221         0.211879
 C         2.734616         0.991635        -0.522544
 C         2.990155        -0.238932        -1.322208
 O         1.803162        -0.935578        -1.023600
 H         0.058040         0.953390         1.310756
 H        -0.057602         1.342523        -0.421778
 H        -0.596029        -0.194510         0.138100
 H         2.452883         0.175526         2.016448
 H         1.448244        -1.297320         1.630078
 H         4.270553        -1.141898         1.848375
 H         3.513171        -2.247622         0.597026
 H         5.112028        -0.655600        -0.279415
 H         2.370824         1.953085        -0.949258
 H         3.240726        -0.229595        -2.372719
