19
Iteration:  4450charge 0 multiplicity 1
 C         0.239181         0.668552         0.200529
 C         1.579500        -0.072376         0.103890
 C         2.224113        -0.675942         1.392220
 C         3.605935        -1.228702         1.011134
 C         4.147180        -0.325393        -0.146195
 O         4.022236         1.164189         0.150340
 C         2.675504         0.990061        -0.531993
 C         2.995092        -0.248728        -1.278063
 O         1.761919        -0.945396        -1.046003
 H         0.327842         1.365935         1.032419
 H        -0.097477         1.125744        -0.708449
 H        -0.521447        -0.128651         0.389307
 H         2.193653         0.184275         2.142017
 H         1.605921        -1.431849         1.935277
 H         4.158659        -1.429684         1.987942
 H         3.382079        -2.225577         0.586461
 H         5.225163        -0.610511        -0.466216
 H         2.191072         1.909303        -0.916858
 H         3.408109        -0.320941        -2.344245
