19
Iteration:  2483
 C         0.154108         0.502093         0.265412
 C         1.635706         0.105875         0.133495
 C         2.126700        -0.728457         1.399948
 C         3.492797        -1.182377         0.895355
 C         4.146897        -0.280421        -0.202168
 O         4.025948         1.125774         0.183587
 C         2.760150         1.006851        -0.528509
 C         2.995829        -0.221522        -1.410936
 O         1.914475        -0.976962        -0.906202
 H         0.137985         1.056452         1.176905
 H        -0.144965         1.326567        -0.406867
 H        -0.485419        -0.303394         0.297433
 H         2.262206        -0.017274         2.328893
 H         1.377199        -1.516047         1.508261
 H         4.205452        -1.122580         1.750956
 H         3.340881        -2.296276         0.495332
 H         5.097638        -0.515055        -0.594913
 H         2.423838         2.051355        -0.775630
 H         3.017135        -0.241772        -2.519163
