19
Iteration:  3439charge 0 multiplicity 1
 C         0.238297         0.521959         0.304049
 C         1.580174         0.087258         0.106677
 C         2.118109        -0.653556         1.319740
 C         3.513404        -1.199882         0.960109
 C         4.172555        -0.312455        -0.217177
 O         4.016182         1.050235         0.154994
 C         2.688614         1.029421        -0.531895
 C         3.047183        -0.204426        -1.289329
 O         1.866711        -0.960355        -0.964862
 H         0.370392         1.403249         0.965549
 H        -0.303984         0.930566        -0.582342
 H        -0.483657        -0.236155         0.807295
 H         2.047917         0.008994         2.265841
 H         1.532273        -1.578232         1.437711
 H         4.190565        -1.294456         1.854964
 H         3.226318        -2.178232         0.464448
 H         5.260446        -0.557600        -0.333969
 H         2.492746         2.082744        -1.068242
 H         3.262197        -0.013200        -2.351627
