19
Iteration:  1990
 C         0.188559         0.512157         0.178586
 C         1.582043         0.040283         0.129019
 C         2.292521        -0.584555         1.396676
 C         3.617296        -1.238794         0.971247
 C         4.111216        -0.379477        -0.168392
 O         3.943770         1.076551         0.219590
 C         2.721322         1.022680        -0.532644
 C         3.020206        -0.254437        -1.269795
 O         1.758226        -0.858478        -1.040758
 H         0.109284         1.288473         0.978826
 H        -0.116067         0.910148        -0.706252
 H        -0.409064        -0.415369         0.399024
 H         2.737733         0.290451         1.914591
 H         1.732030        -1.094162         2.108351
 H         4.294098        -1.519714         1.775559
 H         3.420458        -2.130859         0.398436
 H         5.145389        -0.451821        -0.498878
 H         2.109336         1.846587        -1.075979
 H         3.360204        -0.397995        -2.280526
