19
Iteration:   544charge 0 multiplicity 1
 C         0.256155         0.689797         0.382779
 C         1.575737        -0.013468         0.073754
 C         2.027277        -0.714296         1.271273
 C         3.511262        -1.091008         1.049826
 C         4.094997        -0.316602        -0.162024
 O         3.956571         1.171532         0.055211
 C         2.765262         0.977541        -0.622924
 C         3.113235        -0.337588        -1.292509
 O         1.910848        -1.026381        -0.928914
 H         0.413079         1.447672         1.316240
 H        -0.076671         1.298741        -0.392853
 H        -0.568228         0.014658         0.617429
 H         1.895303        -0.418680         2.297835
 H         1.454558        -1.676476         1.134494
 H         4.261582        -0.861540         1.794133
 H         3.549800        -2.093623         0.790177
 H         5.168993        -0.515361        -0.314212
 H         2.466407         1.957795        -1.041774
 H         3.447735        -0.581742        -2.300550
