19
Iteration:   329
 C         0.166543         0.526920         0.292657
 C         1.584541         0.130502         0.010640
 C         2.198027        -0.486336         1.334522
 C         3.500772        -1.214669         0.953857
 C         4.130728        -0.375067        -0.170205
 O         3.903989         1.010873         0.218975
 C         2.709284         1.057741        -0.655648
 C         3.140987        -0.312337        -1.278211
 O         1.927765        -0.958303        -0.903932
 H         0.014898         1.146713         1.122891
 H        -0.327982         1.078974        -0.627867
 H        -0.431575        -0.429615         0.490581
 H         2.418732         0.319859         2.097587
 H         1.395053        -1.056115         1.740383
 H         4.270424        -1.243833         1.707120
 H         3.203238        -2.229239         0.622621
 H         5.121523        -0.694173        -0.415819
 H         2.513404         2.052984        -1.004755
 H         3.364777        -0.481952        -2.294948
