19
Iteration:  1678
 C         0.124589         0.515244         0.146934
 C         1.629774         0.127526         0.105020
 C         2.246783        -0.534030         1.362238
 C         3.638746        -1.246536         0.998266
 C         4.153235        -0.466344        -0.210218
 O         3.927269         1.024014         0.220647
 C         2.713938         1.038590        -0.470766
 C         3.055722        -0.253671        -1.323857
 O         1.782168        -0.876672        -0.952764
 H        -0.197689         1.494818         0.516293
 H        -0.250407         0.510369        -0.934180
 H        -0.359275        -0.293652         0.627929
 H         2.469364         0.287308         2.017151
 H         1.555181        -1.217334         1.922443
 H         4.327273        -1.013272         1.853893
 H         3.625937        -2.294278         0.704876
 H         5.121473        -0.601738        -0.649376
 H         2.191750         1.993391        -0.954005
 H         3.428672        -0.166912        -2.348614
