19
Iteration:  3972
 C         0.256904         0.620592         0.163162
 C         1.681683         0.049738         0.129743
 C         2.206757        -0.632913         1.359567
 C         3.571057        -1.293645         0.972081
 C         4.105871        -0.386299        -0.217093
 O         3.928410         1.073418         0.174877
 C         2.663582         1.023730        -0.434704
 C         2.988004        -0.199410        -1.329634
 O         1.836098        -0.944944        -0.972125
 H         0.349847         1.459619         0.816863
 H        -0.077622         0.893179        -0.790093
 H        -0.523768         0.021005         0.657425
 H         2.322458         0.128048         2.165449
 H         1.545487        -1.395671         1.615932
 H         4.323293        -1.200678         1.787421
 H         3.416231        -2.254285         0.569682
 H         5.142374        -0.544235        -0.325523
 H         2.270238         1.959881        -0.801773
 H         3.329274        -0.080759        -2.328225
