19
Iteration:  1295
 C         0.209394         0.677363         0.259394
 C         1.563963         0.004117         0.167569
 C         2.157510        -0.694619         1.346678
 C         3.656417        -1.111700         1.027041
 C         4.146928        -0.360217        -0.230416
 O         3.936148         1.072618         0.186683
 C         2.747610         1.047872        -0.572258
 C         3.054923        -0.289487        -1.358222
 O         1.807514        -1.005467        -0.998621
 H         0.155520         1.372634         1.173391
 H        -0.033210         1.179026        -0.635060
 H        -0.593900        -0.065805         0.507244
 H         2.043372        -0.166924         2.339358
 H         1.434867        -1.532365         1.534661
 H         4.196987        -0.712490         1.882782
 H         3.694721        -2.199512         0.813178
 H         5.196373        -0.549113        -0.499099
 H         2.292422         1.903674        -0.976062
 H         3.292191        -0.360361        -2.500294
