19
Iteration:   476charge 0 multiplicity 1
 C         0.132984         0.444490         0.147785
 C         1.627513         0.142065         0.086282
 C         2.251067        -0.360852         1.351457
 C         3.581637        -1.225229         0.950327
 C         4.143499        -0.412679        -0.184313
 O         3.947633         0.936617         0.239394
 C         2.743566         1.038385        -0.541659
 C         3.032425        -0.236028        -1.301045
 O         1.809067        -0.954213        -0.908487
 H        -0.340070         1.158871         0.947225
 H        -0.182934         0.781572        -0.866961
 H        -0.463372        -0.409300         0.414891
 H         2.326696         0.433823         2.048562
 H         1.601590        -1.154691         1.868355
 H         4.258917        -1.088006         1.838210
 H         3.492218        -2.242910         0.684287
 H         5.198844        -0.598584        -0.631823
 H         2.535405         2.066454        -0.939127
 H         3.331703        -0.125320        -2.430537
