19
Iteration:  3230
 C         0.146635         0.577947         0.140766
 C         1.591962         0.088133         0.178109
 C         2.174685        -0.685232         1.332596
 C         3.581955        -1.233162         0.894953
 C         4.156217        -0.411761        -0.256774
 O         4.031130         1.107003         0.181639
 C         2.729825         1.097104        -0.476428
 C         3.019229        -0.251180        -1.259641
 O         1.817490        -0.892255        -0.876050
 H         0.165918         1.329726         0.875793
 H        -0.238025         0.919274        -0.833515
 H        -0.507500        -0.282986         0.389526
 H         2.069514        -0.170565         2.325407
 H         1.722625        -1.622637         1.287997
 H         4.263577        -1.183985         1.721987
 H         3.524648        -2.251387         0.507349
 H         5.146896        -0.727652        -0.442187
 H         2.302519         2.127391        -0.767884
 H         3.186516        -0.521185        -2.262688
