19
Iteration:  3450charge 0 multiplicity 1
 C         0.164271         0.579497         0.252744
 C         1.614249         0.035566         0.153444
 C         2.174744        -0.631721         1.323128
 C         3.588706        -1.208247         0.911087
 C         4.128394        -0.406787        -0.211802
 O         3.943339         1.061128         0.188921
 C         2.731284         1.022992        -0.497008
 C         3.089725        -0.189075        -1.321286
 O         1.816084        -0.901730        -0.944832
 H         0.015307         1.436426         0.938172
 H        -0.017901         0.817470        -0.813391
 H        -0.471656        -0.323403         0.565861
 H         2.152393         0.076137         2.233566
 H         1.430195        -1.404215         1.588549
 H         4.419760        -1.189505         1.668628
 H         3.579509        -2.318944         0.639780
 H         5.212803        -0.570096        -0.443874
 H         2.337644         2.088531        -0.879808
 H         3.311755        -0.360627        -2.395448
