19
Iteration:  2000charge 0 multiplicity 1
 C         0.171765         0.515550         0.156800
 C         1.630984         0.030773         0.228770
 C         2.253098        -0.602507         1.433417
 C         3.577955        -1.309136         0.934996
 C         4.152342        -0.276418        -0.128415
 O         3.967922         1.112398         0.106973
 C         2.667644         0.968189        -0.514493
 C         3.064584        -0.249214        -1.324504
 O         1.783235        -0.869362        -1.010322
 H         0.009085         1.339044         0.936635
 H        -0.043437         0.885923        -0.762615
 H        -0.605922        -0.204426         0.562222
 H         2.528158         0.218987         2.151248
 H         1.516963        -1.233696         1.913209
 H         4.300376        -1.553792         1.704364
 H         3.294829        -2.246258         0.497226
 H         5.138417        -0.679975        -0.291776
 H         2.340650         1.987521        -1.037007
 H         3.300174        -0.099798        -2.331518
