19
Iteration:  1702
 C         0.191002         0.457751         0.204954
 C         1.606717        -0.003105         0.126369
 C         2.272718        -0.524166         1.470660
 C         3.574036        -1.173352         1.035757
 C         4.132051        -0.407352        -0.084717
 O         3.954212         1.032587         0.172479
 C         2.782680         1.025110        -0.514817
 C         2.996797        -0.248601        -1.348069
 O         1.728581        -0.847356        -1.148142
 H         0.215208         1.409868         0.686292
 H        -0.333428         0.719365        -0.831534
 H        -0.447271        -0.252419         0.714888
 H         2.328458         0.369170         1.992663
 H         1.748001        -1.237310         2.112882
 H         4.434373        -1.183845         1.740421
 H         3.403107        -2.248356         0.619083
 H         5.149728        -0.639959        -0.541860
 H         2.337959         2.130656        -0.967540
 H         3.579931        -0.320555        -2.269515
