19
Iteration:  1653charge 0 multiplicity 1
 C         0.169480         0.538211         0.201920
 C         1.619094         0.030741         0.122130
 C         2.165695        -0.605015         1.403626
 C         3.493709        -1.186399         0.964452
 C         4.158753        -0.312159        -0.154534
 O         4.040460         1.057620         0.152082
 C         2.688839         1.102165        -0.550757
 C         3.040002        -0.292016        -1.356016
 O         1.873656        -0.980669        -0.908640
 H         0.130283         1.509432         0.784298
 H        -0.043019         0.942149        -0.735469
 H        -0.598604        -0.202316         0.609482
 H         2.148603         0.022945         2.410525
 H         1.487103        -1.490574         1.568015
 H         4.149147        -1.241050         1.897782
 H         3.343091        -2.020181         0.313708
 H         5.141728        -0.537594        -0.512744
 H         2.259895         1.946976        -1.022904
 H         3.352631        -0.242771        -2.444843
