19
Iteration:  2281
 C         0.178503         0.428786         0.155195
 C         1.605267         0.099435         0.181448
 C         2.331925        -0.580426         1.415346
 C         3.569729        -1.251189         0.932993
 C         4.176387        -0.421747        -0.212696
 O         3.994217         1.084920         0.137820
 C         2.628714         1.038620        -0.504454
 C         2.992835        -0.200649        -1.251019
 O         1.778090        -0.818776        -0.949596
 H         0.026766         1.130754         0.911508
 H        -0.027141         0.918701        -0.771511
 H        -0.560942        -0.397565         0.259845
 H         2.327046         0.207894         2.148929
 H         1.545680        -1.369303         1.723936
 H         4.304394        -1.532269         1.739336
 H         3.305786        -2.328043         0.508394
 H         5.202244        -0.762372        -0.519266
 H         2.435573         2.013470        -0.954547
 H         3.301373        -0.258666        -2.326962
