19
Iteration:  4593
 C         0.156457         0.616642         0.184668
 C         1.582655         0.064072         0.162678
 C         2.269753        -0.622712         1.353321
 C         3.645700        -1.279621         1.001045
 C         4.044695        -0.340336        -0.126757
 O         3.990676         1.052793         0.148007
 C         2.683936         1.018672        -0.558599
 C         3.050662        -0.261230        -1.259120
 O         1.786365        -0.915567        -1.008613
 H        -0.085900         1.064215         1.158398
 H        -0.000166         1.456353        -0.443317
 H        -0.521105        -0.209131        -0.050742
 H         2.630132         0.197112         2.080330
 H         1.635439        -1.303998         1.913769
 H         4.445385        -1.315591         1.799509
 H         3.527509        -2.206702         0.488125
 H         5.102898        -0.383595        -0.606864
 H         2.240226         1.892950        -1.053081
 H         3.401077        -0.507596        -2.273047
