19
Iteration:  2294
 C         0.122264         0.436797         0.235297
 C         1.640690         0.105698         0.193688
 C         2.226988        -0.595894         1.424335
 C         3.599107        -1.310077         0.933144
 C         4.116603        -0.326689        -0.115563
 O         4.038890         1.118899         0.090978
 C         2.792743         1.088833        -0.538320
 C         3.054558        -0.252674        -1.290152
 O         1.688589        -0.864514        -1.026815
 H        -0.357625         1.109221         0.974942
 H        -0.130749         0.819378        -0.678416
 H        -0.298612        -0.589747         0.309566
 H         2.577088         0.057601         2.262065
 H         1.552826        -1.356639         1.923232
 H         4.343327        -1.577637         1.737954
 H         3.170888        -2.208014         0.305521
 H         5.159998        -0.427395        -0.421771
 H         2.369482         1.948127        -0.940335
 H         3.356455        -0.360825        -2.280698
