19
Iteration:  4829
 C         0.181672         0.544772         0.216554
 C         1.596038         0.046264         0.123603
 C         2.275756        -0.625635         1.380354
 C         3.574964        -1.235337         0.964838
 C         4.158968        -0.405596        -0.159266
 O         3.919757         1.122032         0.144797
 C         2.733945         1.039981        -0.515126
 C         3.039829        -0.238238        -1.253526
 O         1.782610        -0.927337        -1.012942
 H         0.280614         1.259680         1.011576
 H        -0.121131         1.137046        -0.640041
 H        -0.557761        -0.229535         0.498092
 H         2.347911         0.210185         2.054085
 H         1.536310        -1.344808         1.872322
 H         4.350585        -1.279203         1.770232
 H         3.451267        -2.297493         0.489041
 H         5.231208        -0.525701        -0.434708
 H         2.307325         1.969930        -1.108424
 H         3.217412        -0.302837        -2.381739
