19
Iteration:  3331charge 0 multiplicity 1
 C         0.214918         0.459013         0.156833
 C         1.594382         0.039767         0.233820
 C         2.187915        -0.651606         1.413254
 C         3.479530        -1.292593         0.929377
 C         4.176567        -0.318019        -0.170890
 O         4.081402         1.151625         0.104612
 C         2.734717         1.056558        -0.524225
 C         2.977507        -0.218368        -1.242903
 O         1.772493        -0.847731        -1.032470
 H        -0.016095         1.177539         0.944380
 H         0.077279         1.167528        -0.613947
 H        -0.415404        -0.454350         0.236768
 H         2.520319        -0.033799         2.298074
 H         1.437363        -1.360660         1.829018
 H         4.031169        -1.500297         1.882154
 H         3.449799        -2.325103         0.552350
 H         5.186534        -0.709545        -0.484480
 H         2.292220         2.043050        -0.811434
 H         3.406530        -0.527248        -2.205471
