19
Iteration:  2576charge 0 multiplicity 1
 C         0.145753         0.464502         0.375255
 C         1.585503         0.019010         0.088396
 C         2.159734        -0.669311         1.402815
 C         3.457412        -1.316623         0.964470
 C         4.146607        -0.288704        -0.175690
 O         4.009172         1.152884         0.118539
 C         2.727516         1.086941        -0.610737
 C         3.123998        -0.213466        -1.325564
 O         1.878694        -0.884656        -0.989792
 H         0.256129         1.406773         1.032922
 H        -0.316893         0.917331        -0.462745
 H        -0.483561        -0.378218         0.913378
 H         2.376630         0.035757         2.094426
 H         1.498153        -1.484151         1.794511
 H         3.997983        -1.715343         1.853492
 H         3.241922        -2.043265         0.247550
 H         5.250496        -0.567476        -0.395361
 H         2.308503         1.977600        -1.099652
 H         3.527677        -0.196304        -2.340147
