19
Iteration:  3571charge 0 multiplicity 1
 C         0.178146         0.636708         0.266031
 C         1.653863        -0.020057         0.080478
 C         2.276483        -0.631928         1.342551
 C         3.638550        -1.228877         1.034154
 C         4.134861        -0.441432        -0.260979
 O         3.922930         1.039265         0.246649
 C         2.672706         0.995656        -0.432489
 C         2.961929        -0.187470        -1.343992
 O         1.792660        -0.842123        -1.122561
 H         0.309803         1.306003         1.076091
 H        -0.020153         0.895704        -0.735194
 H        -0.592644        -0.112233         0.560394
 H         2.090865         0.175802         2.095560
 H         1.696059        -1.484797         1.779840
 H         4.313852        -0.986727         1.911974
 H         3.666156        -2.371073         1.050485
 H         5.190126        -0.556150        -0.355510
 H         2.429374         2.072005        -0.851432
 H         3.282262        -0.337077        -2.424392
