19
Iteration:  4918charge 0 multiplicity 1
 C         0.182738         0.583625         0.318300
 C         1.616038         0.002390         0.112534
 C         2.230845        -0.625937         1.251541
 C         3.643730        -1.178837         1.035564
 C         4.132509        -0.360285        -0.210712
 O         3.941100         1.005225         0.222700
 C         2.660833         1.015799        -0.504426
 C         3.036528        -0.210561        -1.318761
 O         1.804728        -0.899128        -1.052155
 H         0.217845         1.584102         0.718966
 H        -0.211736         0.668973        -0.653097
 H        -0.538482        -0.083771         0.790258
 H         2.306633         0.219900         1.972610
 H         1.640130        -1.444165         1.712072
 H         4.376281        -0.907807         1.836096
 H         3.442803        -2.280210         0.896926
 H         5.151337        -0.676694        -0.426484
 H         2.334180         2.002795        -1.047668
 H         3.325436        -0.270906        -2.408855
