19
Iteration:  2917
 C         0.238372         0.518085         0.275397
 C         1.611908         0.113585         0.061572
 C         2.241873        -0.522546         1.297935
 C         3.646143        -1.220675         1.008114
 C         4.116794        -0.364788        -0.195562
 O         3.860712         0.944804         0.264625
 C         2.740854         1.079920        -0.498491
 C         2.983076        -0.258447        -1.339016
 O         1.817557        -0.926890        -1.100294
 H         0.299097         1.500344         0.975319
 H        -0.317274         0.900258        -0.595585
 H        -0.368939        -0.233072         0.879905
 H         2.184744         0.238628         2.085659
 H         1.481448        -1.350940         1.729129
 H         4.429577        -1.047327         1.904016
 H         3.561169        -2.343855         0.876451
 H         5.220592        -0.569710        -0.397636
 H         2.457795         2.111490        -0.692884
 H         3.265393        -0.411130        -2.392046
