19
Iteration:   308
 C         0.204039         0.478172         0.224147
 C         1.639887         0.035088         0.045614
 C         2.293570        -0.371139         1.410154
 C         3.560126        -1.190000         1.051627
 C         4.122597        -0.415379        -0.121114
 O         3.883038         1.022239         0.265509
 C         2.744564         0.967830        -0.523833
 C         3.044417        -0.268573        -1.408481
 O         1.759391        -0.949603        -1.109950
 H         0.178375         1.114067         1.047241
 H         0.008474         1.106440        -0.765860
 H        -0.472285        -0.441302         0.390646
 H         2.604265         0.572240         1.937648
 H         1.594475        -0.822802         2.096165
 H         4.264958        -1.158938         1.868710
 H         3.264439        -2.187815         0.796524
 H         5.173233        -0.640439        -0.329230
 H         2.398509         1.905904        -0.913184
 H         3.408421        -0.220804        -2.429354
