19
Iteration:  4548charge 0 multiplicity 1
 C         0.170960         0.500564         0.258939
 C         1.625028         0.067677         0.089605
 C         2.236883        -0.589938         1.402879
 C         3.513316        -1.193759         0.988125
 C         4.073760        -0.405570        -0.152712
 O         4.005368         1.037938         0.119426
 C         2.730732         1.126615        -0.531231
 C         3.000171        -0.260083        -1.281449
 O         1.861865        -0.912291        -1.011553
 H         0.065491         1.200618         1.085774
 H        -0.140217         1.090259        -0.582872
 H        -0.382149        -0.470489         0.356337
 H         2.383318         0.296170         2.080178
 H         1.483952        -1.310396         1.813754
 H         4.256656        -1.292814         1.815810
 H         3.325905        -2.178153         0.571054
 H         5.018963        -0.933242        -0.623922
 H         2.425537         2.129487        -0.889466
 H         3.495534        -0.259672        -2.314846
