19
Iteration:  1096
 C         0.132794         0.412817         0.179429
 C         1.626315         0.080887         0.202508
 C         2.220518        -0.568317         1.486111
 C         3.494086        -1.188145         0.921019
 C         4.149214        -0.397440        -0.140867
 O         4.073118         1.110415         0.035512
 C         2.758841         1.040241        -0.506071
 C         3.066952        -0.240210        -1.253431
 O         1.764786        -0.865792        -1.002846
 H        -0.103100         1.287494         0.751866
 H        -0.188194         0.642740        -0.891016
 H        -0.468905        -0.460200         0.633424
 H         2.236986         0.320938         2.127157
 H         1.594437        -1.387124         1.849273
 H         4.091468        -1.534597         1.803119
 H         3.201811        -2.142237         0.525510
 H         5.115256        -0.717282        -0.413504
 H         2.415276         1.969265        -0.939061
 H         3.337270        -0.336561        -2.306065
