19
Iteration:   626charge 0 multiplicity 1
 C         0.090536         0.380977         0.144906
 C         1.589164         0.143781         0.150548
 C         2.172720        -0.491761         1.377640
 C         3.435576        -1.222945         0.926798
 C         4.154496        -0.423338        -0.229931
 O         4.086319         1.036401         0.092922
 C         2.751036         1.120770        -0.571394
 C         3.057036        -0.219279        -1.284312
 O         1.894638        -0.889666        -0.753252
 H        -0.186000         1.159646         0.815644
 H        -0.237345         0.653139        -0.977218
 H        -0.484320        -0.592524         0.445468
 H         2.494766         0.135040         2.309097
 H         1.395384        -1.211775         1.668292
 H         4.200679        -1.406052         1.746538
 H         3.236085        -2.320552         0.523211
 H         5.169484        -0.750647        -0.545492
 H         2.470733         2.155738        -0.862281
 H         3.263357        -0.393778        -2.393850
