19
Iteration:  1287
 C         0.143681         0.642120         0.286862
 C         1.639762         0.129748         0.107729
 C         2.147618        -0.682234         1.303769
 C         3.612604        -1.163909         0.976066
 C         4.171063        -0.324254        -0.168047
 O         3.954937         1.080651         0.175491
 C         2.716418         1.008675        -0.577039
 C         3.017225        -0.307065        -1.369023
 O         1.841861        -1.000897        -0.904180
 H         0.066905         1.358334         1.136419
 H        -0.312967         1.185280        -0.581760
 H        -0.587353        -0.142766         0.402362
 H         2.031538        -0.089080         2.278551
 H         1.620393        -1.675040         1.313745
 H         4.361748        -1.028883         1.728069
 H         3.669843        -2.290640         0.851819
 H         5.235717        -0.534635        -0.429462
 H         2.468173         1.938115        -1.060470
 H         3.334984        -0.406489        -2.373652
