19
Iteration:   672charge 0 multiplicity 1
 C         0.262312         0.647261         0.283547
 C         1.569867        -0.033646         0.030090
 C         2.192442        -0.575998         1.329398
 C         3.656358        -1.136161         1.123778
 C         4.104893        -0.396675        -0.138456
 O         3.889117         1.007192         0.165026
 C         2.656504         0.943314        -0.566757
 C         3.033401        -0.238160        -1.307132
 O         1.830952        -0.927820        -1.122018
 H         0.394512         0.909726         1.384595
 H         0.022623         1.581585        -0.299832
 H        -0.672334         0.039355         0.307133
 H         2.434359         0.345464         1.915627
 H         1.676917        -1.265388         2.060261
 H         4.402880        -0.812166         1.996621
 H         3.667897        -2.277202         1.040794
 H         5.214415        -0.603196        -0.347364
 H         2.284120         1.860845        -1.059445
 H         3.354948        -0.348832        -2.422355
