19
Iteration:   315
 C         0.178193         0.485873         0.220633
 C         1.655612         0.054967         0.092123
 C         2.250327        -0.358728         1.349863
 C         3.504582        -1.186323         0.989405
 C         4.123966        -0.426010        -0.157934
 O         3.873167         0.995525         0.309371
 C         2.760071         0.997958        -0.596687
 C         3.029028        -0.243388        -1.391213
 O         1.837732        -0.969766        -1.031574
 H         0.374938         1.088149         1.222955
 H        -0.162621         1.050189        -0.579883
 H        -0.406332        -0.372885         0.439751
 H         2.555316         0.556656         1.868020
 H         1.703601        -1.004298         2.070609
 H         4.046844        -1.141061         1.965112
 H         3.395729        -2.356990         0.779780
 H         5.173428        -0.448674        -0.389596
 H         2.496163         1.921832        -1.182650
 H         3.438981        -0.375068        -2.386440
