19
Iteration:  1170
 C         0.298789         0.683125         0.291464
 C         1.584258         0.022273         0.120278
 C         2.146780        -0.833519         1.370235
 C         3.584307        -1.214175         1.032169
 C         4.126410        -0.349621        -0.084695
 O         3.957590         1.229749        -0.017140
 C         2.673890         0.955746        -0.571744
 C         3.082336        -0.260031        -1.249049
 O         1.809861        -0.926982        -1.001055
 H         0.377634         1.368415         1.070979
 H        -0.123639         1.135600        -0.639248
 H        -0.494044        -0.002045         0.401344
 H         2.116136        -0.127934         2.125490
 H         1.400407        -1.540685         1.475521
 H         4.157105        -1.225471         1.996542
 H         3.601385        -2.226266         0.836860
 H         5.173917        -0.536510        -0.315782
 H         2.111035         1.873582        -1.029263
 H         3.458119        -0.378162        -2.212258
