19
Iteration:  1355
 C         0.107888         0.517930         0.267347
 C         1.593113         0.111577         0.124354
 C         2.170910        -0.586452         1.322257
 C         3.568237        -1.152410         0.958277
 C         4.095438        -0.395699        -0.220088
 O         3.986394         1.045689         0.172269
 C         2.755970         1.010430        -0.602104
 C         3.125053        -0.282207        -1.274940
 O         1.828244        -0.879544        -0.919491
 H         0.038145         1.298293         0.962276
 H        -0.431361         0.749115        -0.726793
 H        -0.398230        -0.376068         0.647121
 H         2.323957         0.017775         2.214761
 H         1.515796        -1.460076         1.409673
 H         4.268824        -1.134448         1.793941
 H         3.650584        -2.198685         0.723022
 H         5.167486        -0.540007        -0.379555
 H         2.548493         2.043157        -0.997591
 H         3.300562        -0.503919        -2.263262
