19
Iteration:  4794charge 0 multiplicity 1
 C         0.162210         0.506281         0.252938
 C         1.572689         0.041023         0.069462
 C         2.263843        -0.595146         1.405875
 C         3.658517        -1.123662         1.058439
 C         4.133300        -0.437780        -0.204154
 O         3.908727         0.995020         0.173174
 C         2.756598         1.053326        -0.542841
 C         2.974863        -0.262975        -1.350386
 O         1.775539        -0.854217        -1.043166
 H         0.055198         0.756095         1.296136
 H         0.004798         1.419779        -0.363487
 H        -0.608673        -0.178250        -0.035824
 H         2.463331         0.220453         2.129611
 H         1.736573        -1.443335         1.938819
 H         4.349259        -0.967728         1.880993
 H         3.618421        -2.259653         0.872156
 H         5.207752        -0.437136        -0.309957
 H         2.714095         2.112253        -1.019643
 H         3.256852        -0.423419        -2.417595
