19
Iteration:  1563charge 0 multiplicity 1
 C         0.158422         0.447872         0.150578
 C         1.626239         0.084172         0.131934
 C         2.172226        -0.606172         1.506899
 C         3.535346        -1.244864         1.051048
 C         4.142484        -0.363536        -0.109357
 O         4.057316         1.107560         0.017766
 C         2.762655         1.053806        -0.518131
 C         2.995611        -0.211138        -1.299425
 O         1.806303        -0.893503        -1.018379
 H        -0.056302         1.187495         0.918489
 H        -0.138855         1.115939        -0.699248
 H        -0.500852        -0.466889         0.206176
 H         2.192808         0.336624         2.164369
 H         1.557663        -1.455309         1.921467
 H         4.276102        -1.480428         1.866828
 H         3.281042        -2.279569         0.607580
 H         5.179105        -0.704867        -0.361274
 H         2.477265         1.989831        -0.887928
 H         3.220324        -0.357175        -2.363598
