19
Iteration:  3726
 C         0.213647         0.656202         0.196748
 C         1.619405         0.119977         0.148067
 C         2.164757        -0.752592         1.341333
 C         3.585947        -1.223529         0.917027
 C         4.166606        -0.414634        -0.190061
 O         3.980473         1.094387         0.152597
 C         2.671047         1.050322        -0.502656
 C         3.024654        -0.202934        -1.268391
 O         1.853202        -0.946201        -0.927132
 H         0.022754         1.338045         1.072027
 H        -0.143366         1.177446        -0.670056
 H        -0.413755        -0.232436         0.315500
 H         2.145151        -0.156170         2.224037
 H         1.524630        -1.661224         1.516169
 H         4.185266        -1.546362         1.774872
 H         3.261820        -2.229738         0.498401
 H         5.189188        -0.522034        -0.540052
 H         2.394771         2.069198        -0.838420
 H         3.164645        -0.171451        -2.333287
