19
Iteration:   112
 C         0.221363         0.661395         0.213376
 C         1.633380         0.028416         0.052578
 C         2.218769        -0.522166         1.361040
 C         3.685170        -1.108152         1.119018
 C         4.099547        -0.427054        -0.168518
 O         3.877333         1.002967         0.228930
 C         2.670760         0.898149        -0.588401
 C         3.066423        -0.309582        -1.317069
 O         1.779318        -0.944729        -1.056386
 H         0.202893         1.125767         1.094916
 H         0.076738         1.419757        -0.639139
 H        -0.624460        -0.072165         0.202003
 H         2.177244         0.313457         2.060359
 H         1.547160        -1.265081         1.749106
 H         4.436726        -0.630058         1.783380
 H         3.691588        -2.145531         1.175922
 H         5.164326        -0.538150        -0.528843
 H         2.311727         1.797334        -1.017152
 H         3.377464        -0.371608        -2.378296
