19
Iteration:  2453
 C         0.171011         0.426686         0.290018
 C         1.608362         0.052522         0.049372
 C         2.312537        -0.557634         1.373548
 C         3.621105        -1.249128         0.973477
 C         4.130434        -0.355838        -0.120272
 O         3.895445         1.062131         0.210196
 C         2.701293         0.968034        -0.531949
 C         3.072337        -0.274858        -1.260665
 O         1.743854        -0.763008        -1.114669
 H         0.296232         0.993390         1.200438
 H        -0.269293         1.150207        -0.545510
 H        -0.575390        -0.409432         0.502305
 H         2.629010         0.272226         2.014267
 H         1.629202        -1.214029         1.807599
 H         4.333507        -1.318782         1.800144
 H         3.386695        -2.297738         0.688594
 H         5.123383        -0.603449        -0.541681
 H         2.395018         1.962502        -1.049027
 H         3.430309        -0.207893        -2.361888
