19
Iteration:   440
 C         0.242391         0.512913         0.287567
 C         1.643200         0.009312         0.177174
 C         2.160113        -0.534365         1.433202
 C         3.447594        -1.323070         1.008858
 C         4.150057        -0.300050         0.001982
 O         3.967558         1.187234         0.019141
 C         2.737050         0.955790        -0.650532
 C         3.107266        -0.237730        -1.266926
 O         1.774248        -0.922529        -1.064475
 H         0.223554         1.328256         0.913115
 H        -0.077548         0.865149        -0.845835
 H        -0.381544        -0.455914         0.437507
 H         2.589441         0.305445         2.054526
 H         1.413575        -1.112468         1.988577
 H         4.192408        -1.707392         1.760989
 H         3.093643        -2.259905         0.378773
 H         5.209927        -0.566959        -0.190673
 H         2.374369         1.879688        -1.089668
 H         3.655743        -0.272623        -2.251397
