19
Iteration:  1433
 C         0.161412         0.587470         0.174423
 C         1.643825         0.082450         0.121515
 C         2.175511        -0.605470         1.327058
 C         3.635873        -1.138456         1.011356
 C         4.103800        -0.408735        -0.238643
 O         3.995474         1.013736         0.207142
 C         2.735805         1.055070        -0.550929
 C         3.062066        -0.256624        -1.318709
 O         1.768456        -0.958941        -0.923840
 H        -0.120637         1.056086         1.107482
 H        -0.146621         1.137616        -0.725372
 H        -0.549057        -0.283371         0.210432
 H         2.112964         0.008587         2.255409
 H         1.574705        -1.477534         1.607995
 H         4.207192        -0.766279         1.898806
 H         3.792396        -2.175760         0.817103
 H         5.171794        -0.544984        -0.452338
 H         2.356221         2.065067        -0.874335
 H         3.178547        -0.459479        -2.361839
