19
Iteration:  2845charge 0 multiplicity 1
 C         0.219936         0.539730         0.245258
 C         1.612046         0.071297         0.132686
 C         2.212530        -0.639139         1.379562
 C         3.556066        -1.185196         0.918263
 C         4.121877        -0.386868        -0.237817
 O         3.909356         1.014346         0.180368
 C         2.701252         1.049482        -0.498737
 C         3.071784        -0.247027        -1.288352
 O         1.852854        -0.866526        -0.966572
 H        -0.097039         1.188967         1.051111
 H        -0.078114         1.240387        -0.714732
 H        -0.508444        -0.346246         0.200473
 H         2.293782         0.005135         2.250150
 H         1.511816        -1.344770         1.689702
 H         4.244420        -1.161116         1.675729
 H         3.482913        -2.240823         0.736348
 H         5.195958        -0.529874        -0.535204
 H         2.481388         2.070221        -0.902275
 H         3.349833        -0.446960        -2.351684
