19
Iteration:  2594charge 0 multiplicity 1
 C         0.227760         0.492753         0.269263
 C         1.659813         0.073956         0.180060
 C         2.195924        -0.646307         1.403904
 C         3.533976        -1.270920         0.863378
 C         4.157327        -0.355412        -0.078358
 O         3.952758         1.163483         0.101554
 C         2.688159         0.999734        -0.527050
 C         3.044289        -0.251894        -1.251781
 O         1.783028        -0.842384        -1.045385
 H         0.023098         1.200463         0.999363
 H        -0.059316         0.811015        -0.757652
 H        -0.393668        -0.325881         0.485300
 H         2.387009         0.129351         2.286509
 H         1.588583        -1.484289         1.699655
 H         4.376111        -1.458597         1.559197
 H         3.359971        -2.275546         0.267103
 H         5.150407        -0.556570        -0.277135
 H         2.297751         2.014756        -0.841353
 H         3.425894        -0.459340        -2.304429
