19
Iteration:  4907
 C         0.131704         0.579915         0.272221
 C         1.524372         0.058024         0.102878
 C         2.293432        -0.585012         1.376939
 C         3.741345        -1.158967         1.022409
 C         4.158455        -0.489135        -0.183002
 O         3.878227         1.018887         0.260894
 C         2.711046         0.937667        -0.512661
 C         3.053232        -0.217692        -1.333189
 O         1.750725        -0.845148        -1.149282
 H         0.099354         1.595627         0.635870
 H        -0.228011         0.575081        -0.706175
 H        -0.512204         0.050361         0.991081
 H         2.302461         0.207524         2.164791
 H         1.683149        -1.413264         1.829730
 H         4.476440        -1.055585         1.878200
 H         3.850707        -2.301461         0.860741
 H         5.176092        -0.482029        -0.591612
 H         2.362067         1.948693        -1.040159
 H         3.374493        -0.178196        -2.429655
