19
Iteration:  3619charge 0 multiplicity 1
 C         0.139755         0.547353         0.191373
 C         1.667213         0.115532         0.179807
 C         2.144722        -0.727354         1.363874
 C         3.576894        -1.346697         0.852561
 C         4.181355        -0.380360        -0.115365
 O         3.989430         1.172035         0.095467
 C         2.705184         1.048791        -0.479635
 C         3.089291        -0.219568        -1.249737
 O         1.745380        -0.839289        -0.953943
 H         0.106966         1.365325         0.898119
 H        -0.091394         0.716290        -0.840891
 H        -0.461744        -0.202999         0.568062
 H         2.555279        -0.097780         2.155292
 H         1.431731        -1.448270         1.828249
 H         4.187418        -1.579232         1.727270
 H         3.356905        -2.282635         0.331350
 H         5.240393        -0.628479        -0.461975
 H         2.450133         1.991278        -0.821543
 H         3.429411        -0.372808        -2.233555
