19
Iteration:  4565
 C         0.210675         0.501933         0.235991
 C         1.647838         0.154255         0.188485
 C         2.133907        -0.535074         1.384200
 C         3.487139        -1.236066         0.868440
 C         4.199354        -0.361019        -0.189636
 O         4.001269         1.084748         0.173796
 C         2.743363         0.975277        -0.591990
 C         3.087016        -0.257861        -1.349655
 O         1.788872        -0.920000        -0.862691
 H        -0.128489         0.974129         1.182628
 H        -0.187188         1.181707        -0.604389
 H        -0.320799        -0.464020         0.111535
 H         2.281907        -0.072850         2.321140
 H         1.424438        -1.381814         1.582133
 H         4.215699        -1.329926         1.654099
 H         3.280179        -2.232488         0.373714
 H         5.210055        -0.381328        -0.363052
 H         2.328874         1.895219        -1.056414
 H         3.164024        -0.489134        -2.394860
