19
Iteration:  3493charge 0 multiplicity 1
 C         0.177553         0.523787         0.169367
 C         1.627579         0.007659         0.180824
 C         2.250469        -0.548567         1.379006
 C         3.591372        -1.223641         0.956012
 C         4.150651        -0.413534        -0.241925
 O         3.971284         1.057999         0.226371
 C         2.665290         0.954390        -0.454517
 C         3.020194        -0.210802        -1.339211
 O         1.775081        -0.846832        -1.034031
 H        -0.027831         1.210829         0.966480
 H         0.108947         1.282344        -0.606054
 H        -0.506829        -0.363245         0.068326
 H         2.547640         0.326578         2.051585
 H         1.703392        -1.266031         1.979771
 H         4.198516        -1.228222         1.885551
 H         3.507428        -2.291248         0.604002
 H         5.125215        -0.689361        -0.549753
 H         2.217638         2.020578        -0.561033
 H         3.401474        -0.226504        -2.383093
