19
Iteration:  3821
 C         0.194256         0.556264         0.217780
 C         1.646079         0.117866         0.140168
 C         2.173009        -0.634108         1.330141
 C         3.503930        -1.248837         0.960445
 C         4.195248        -0.334630        -0.231735
 O         4.043319         1.022940         0.132836
 C         2.667712         1.115722        -0.452616
 C         3.026550        -0.178872        -1.295021
 O         1.814222        -0.974284        -0.984402
 H        -0.066520         1.226798         1.063634
 H        -0.145342         0.959078        -0.701978
 H        -0.376536        -0.427609         0.360164
 H         2.222142         0.003838         2.260464
 H         1.533384        -1.389150         1.662653
 H         4.199275        -1.445061         1.697494
 H         3.345657        -2.253478         0.786463
 H         5.116665        -0.759537        -0.302418
 H         2.301608         2.158448        -0.582118
 H         3.289977        -0.341814        -2.325268
