19
Iteration:  3151
 C         0.065366         0.484227         0.335808
 C         1.606537         0.174221         0.109900
 C         2.123372        -0.574933         1.319695
 C         3.534803        -1.226318         0.880264
 C         4.149412        -0.415172        -0.235190
 O         3.981543         1.102821         0.187827
 C         2.788360         1.000361        -0.547924
 C         3.129292        -0.257467        -1.327236
 O         1.873608        -0.891837        -0.913520
 H         0.054135         0.983628         1.286386
 H        -0.182159         1.200525        -0.489415
 H        -0.522041        -0.438030         0.463391
 H         2.077787         0.002191         2.314669
 H         1.450128        -1.418995         1.618660
 H         4.217001        -1.379263         1.734467
 H         3.471382        -2.283904         0.426694
 H         5.213501        -0.652923        -0.431227
 H         2.393865         2.003114        -0.976353
 H         3.399571        -0.377178        -2.431321
