19
Iteration:  3360
 C         0.186673         0.538662         0.130069
 C         1.566913         0.033007         0.164186
 C         2.170402        -0.610603         1.401137
 C         3.588671        -1.210621         0.914564
 C         4.118834        -0.418999        -0.250607
 O         4.038567         1.010889         0.192021
 C         2.684871         1.022135        -0.502104
 C         2.989599        -0.101336        -1.299441
 O         1.874175        -0.893448        -0.919526
 H        -0.015892         1.135061         1.011563
 H        -0.075001         1.180601        -0.746207
 H        -0.581959        -0.289379         0.231344
 H         2.295003         0.066651         2.304757
 H         1.540705        -1.397589         1.753213
 H         4.344043        -1.147347         1.726689
 H         3.604198        -2.290220         0.644347
 H         5.051304        -0.803298        -0.511364
 H         2.295460         2.050521        -0.822593
 H         3.287628        -0.183300        -2.314987
