19
Iteration:  1289
 C         0.162901         0.655304         0.287905
 C         1.619999         0.094757         0.128193
 C         2.147099        -0.683314         1.317063
 C         3.622561        -1.155922         0.985555
 C         4.168178        -0.330071        -0.184864
 O         3.949657         1.078636         0.182062
 C         2.734950         1.020492        -0.569238
 C         3.027927        -0.308765        -1.381383
 O         1.832087        -1.007759        -0.927379
 H         0.072041         1.321174         1.107044
 H        -0.289607         1.199981        -0.633681
 H        -0.605040        -0.093720         0.423827
 H         2.015515        -0.142095         2.259317
 H         1.586743        -1.628702         1.374466
 H         4.351435        -0.909007         1.797633
 H         3.669699        -2.251396         0.845954
 H         5.222246        -0.542782        -0.447045
 H         2.372626         2.005374        -1.106116
 H         3.312297        -0.377427        -2.364884
