19
Iteration:  2790charge 0 multiplicity 1
 C         0.205837         0.505821         0.312421
 C         1.634841         0.116884         0.075974
 C         2.168523        -0.622506         1.388734
 C         3.570979        -1.231784         1.026471
 C         4.117134        -0.352260        -0.141582
 O         3.974117         1.027926         0.152113
 C         2.693445         1.009869        -0.563165
 C         3.058467        -0.225039        -1.389756
 O         1.842033        -0.861518        -1.017035
 H         0.242310         1.096920         1.242708
 H        -0.396196         1.278792        -0.444275
 H        -0.488528        -0.385222         0.326786
 H         2.162253         0.025154         2.274037
 H         1.407539        -1.369557         1.499377
 H         4.292038        -1.288781         1.784581
 H         3.428024        -2.239350         0.636729
 H         5.189189        -0.678960        -0.275088
 H         2.364921         2.013555        -0.931485
 H         3.370060        -0.297281        -2.458167
