19
Iteration:  1859charge 0 multiplicity 1
 C         0.195774         0.560186         0.262723
 C         1.585027        -0.009363         0.149087
 C         2.252114        -0.548267         1.388074
 C         3.523475        -1.230129         0.980258
 C         4.153779        -0.344193        -0.137271
 O         3.948178         1.079956         0.180618
 C         2.656066         0.944992        -0.528400
 C         3.090620        -0.260859        -1.338498
 O         1.842882        -0.863943        -1.086702
 H         0.169948         1.454487         0.970276
 H        -0.184580         0.754962        -0.675319
 H        -0.420164        -0.174862         0.871356
 H         2.454175         0.292343         2.075798
 H         1.589435        -1.169274         1.890328
 H         4.268533        -1.443132         1.786377
 H         3.312654        -2.151332         0.400959
 H         5.135640        -0.707338        -0.487690
 H         2.150339         1.891198        -0.931270
 H         3.402965        -0.323207        -2.389107
