19
Iteration:    21charge 0 multiplicity 1
 C         0.064581         0.592252         0.124316
 C         1.581860         0.121685         0.112007
 C         2.214919        -0.438296         1.356367
 C         3.603227        -1.162716         1.032552
 C         4.166856        -0.581115        -0.345715
 O         3.923940         0.981704         0.306413
 C         2.709641         1.004776        -0.532641
 C         3.048656        -0.230966        -1.396755
 O         1.905974        -0.978839        -0.898730
 H        -0.053197         1.560187         0.702052
 H        -0.248738         0.714900        -0.832182
 H        -0.519868        -0.139288         0.578373
 H         2.466640         0.363013         2.113744
 H         1.545312        -1.189644         1.910515
 H         4.291913        -0.752684         1.637155
 H         3.600442        -2.269511         1.224000
 H         5.201473        -0.801497        -0.482302
 H         2.435494         2.121138        -0.845604
 H         3.342473        -0.102200        -2.400244
