19
Iteration:  1193charge 0 multiplicity 1
 C         0.170132         0.539277         0.197747
 C         1.567237         0.123434         0.168989
 C         2.191435        -0.687309         1.418044
 C         3.618384        -1.198492         0.987943
 C         4.176755        -0.312643        -0.147185
 O         4.015811         1.094667         0.089718
 C         2.762484         1.037108        -0.583072
 C         3.028535        -0.313142        -1.276370
 O         1.743545        -0.886371        -0.954056
 H        -0.074126         1.258672         0.898047
 H        -0.171733         0.844484        -0.789572
 H        -0.453898        -0.342154         0.289096
 H         2.220299        -0.144881         2.323761
 H         1.468549        -1.449950         1.465363
 H         4.314030        -1.386452         1.856911
 H         3.486731        -2.163150         0.626163
 H         5.204557        -0.503373        -0.401866
 H         2.405385         2.034865        -0.994514
 H         3.289994        -0.505718        -2.306637
