19
Iteration:   348
 C         0.145839         0.547096         0.190579
 C         1.605351         0.100189         0.192607
 C         2.149258        -0.624401         1.372982
 C         3.525032        -1.228010         1.014729
 C         4.197869        -0.354745        -0.065986
 O         4.036472         1.166587         0.026224
 C         2.754315         0.983689        -0.603185
 C         3.069196        -0.294561        -1.278032
 O         1.805742        -0.926199        -0.962865
 H        -0.104504         1.345528         1.018480
 H        -0.326112         1.002548        -0.610815
 H        -0.513077        -0.252298         0.485673
 H         2.172517        -0.001631         2.288366
 H         1.493058        -1.512110         1.515899
 H         4.079541        -1.442586         1.950734
 H         3.351096        -2.238382         0.420954
 H         5.246134        -0.453565        -0.264264
 H         2.364777         1.894558        -1.107463
 H         3.422606        -0.506375        -2.269464
