19
Iteration:  2262charge 0 multiplicity 1
 C         0.175029         0.577219         0.193061
 C         1.622332         0.069620         0.144796
 C         2.206108        -0.584143         1.411081
 C         3.616897        -1.206659         0.909116
 C         4.080315        -0.333299        -0.299043
 O         3.941733         0.978771         0.226275
 C         2.707175         1.044624        -0.427034
 C         2.999306        -0.171286        -1.405421
 O         1.854852        -1.012130        -0.947012
 H         0.002968         1.317653         1.037786
 H        -0.055316         0.922384        -0.768389
 H        -0.529539        -0.277073         0.318475
 H         2.488003         0.339114         1.996691
 H         1.632245        -1.315540         2.007914
 H         4.466113        -1.008434         1.602670
 H         3.477241        -2.316400         0.844133
 H         5.128976        -0.500160        -0.502090
 H         2.423374         2.033692        -0.620531
 H         3.349331        -0.193717        -2.374975
