19
Iteration:   897
 C         0.148372         0.450040         0.320354
 C         1.632765         0.106711         0.082800
 C         2.174256        -0.598458         1.391343
 C         3.501028        -1.240987         0.972192
 C         4.216039        -0.384189        -0.173143
 O         3.993916         1.101931         0.112844
 C         2.717402         1.016514        -0.612331
 C         3.091577        -0.222971        -1.301180
 O         1.798492        -0.879262        -0.962949
 H        -0.070040         0.994486         1.171423
 H        -0.265294         0.951547        -0.606599
 H        -0.386291        -0.527892         0.330208
 H         2.480158         0.216154         2.135369
 H         1.376133        -1.143794         1.902216
 H         4.042348        -1.407330         1.929911
 H         3.243416        -2.050564         0.370727
 H         5.278318        -0.531305        -0.297426
 H         2.476319         2.098447        -0.849402
 H         3.389545        -0.451872        -2.320131
