19
Iteration:   878charge 0 multiplicity 1
 C         0.152209         0.512813         0.220617
 C         1.612464         0.015552         0.151459
 C         2.274121        -0.604736         1.391539
 C         3.700517        -1.202383         1.080065
 C         4.078446        -0.375139        -0.115267
 O         4.012620         1.081645         0.123963
 C         2.693640         0.984479        -0.553737
 C         2.999107        -0.293354        -1.273079
 O         1.714562        -0.797403        -1.126082
 H        -0.004666         0.889923         1.270535
 H         0.015724         1.375931        -0.586242
 H        -0.603061        -0.365941         0.057868
 H         2.284840         0.112174         2.276428
 H         1.657607        -1.439227         1.711712
 H         4.341009        -0.943186         1.944388
 H         3.550635        -2.342946         0.756952
 H         5.069540        -0.611964        -0.511086
 H         2.447480         1.935395        -1.099056
 H         3.494509        -0.374001        -2.282346
