19
Iteration:   564charge 0 multiplicity 1
 C         0.208783         0.697126         0.306043
 C         1.615388         0.139531         0.082343
 C         2.186717        -0.672100         1.304442
 C         3.683284        -1.174521         1.069592
 C         4.170510        -0.357204        -0.087167
 O         3.846201         1.073263         0.180922
 C         2.653097         0.956343        -0.705506
 C         3.085173        -0.336406        -1.279263
 O         1.818395        -0.979814        -1.034833
 H         0.338586         1.630530         0.971487
 H        -0.292755         1.167279        -0.496724
 H        -0.364110        -0.120601         0.646865
 H         2.247145        -0.050482         2.173759
 H         1.443433        -1.524873         1.455553
 H         4.167824        -1.053870         2.070931
 H         3.745628        -2.187334         0.828026
 H         5.279907        -0.542926        -0.369221
 H         2.221300         1.862487        -1.198115
 H         3.358502        -0.483881        -2.380350
