19
Iteration:  1612
 C         0.186634         0.608590         0.270562
 C         1.595277         0.041080         0.060117
 C         2.218402        -0.635431         1.332760
 C         3.702452        -1.153224         1.086839
 C         4.132381        -0.354250        -0.121254
 O         3.907109         1.055384         0.212478
 C         2.699596         0.937669        -0.644474
 C         3.089489        -0.255179        -1.314887
 O         1.742854        -0.915266        -1.061649
 H         0.112467         1.153199         1.251777
 H        -0.049122         1.396511        -0.468217
 H        -0.591676        -0.148290         0.166093
 H         2.244289         0.202888         2.001355
 H         1.506844        -1.389210         1.718476
 H         4.366134        -1.100712         1.984542
 H         3.550539        -2.228969         0.935140
 H         5.113537        -0.639835        -0.451070
 H         2.395940         2.028015        -0.971926
 H         3.475213        -0.561250        -2.291084
