19
Iteration:   881
 C         0.146303         0.495292         0.213137
 C         1.595114         0.029725         0.155235
 C         2.259637        -0.596231         1.397319
 C         3.664730        -1.213192         1.050616
 C         4.093358        -0.368136        -0.077342
 O         3.995651         1.082557         0.095563
 C         2.725260         1.023961        -0.547885
 C         3.026635        -0.306594        -1.285360
 O         1.725365        -0.793625        -1.104775
 H         0.008316         0.908093         1.296220
 H        -0.048524         1.262947        -0.491781
 H        -0.519321        -0.352577         0.138132
 H         2.285770         0.143361         2.152586
 H         1.692146        -1.473850         1.754348
 H         4.434829        -1.178090         1.846327
 H         3.547831        -2.314287         0.770754
 H         5.106277        -0.654288        -0.455740
 H         2.388830         1.855383        -1.100557
 H         3.448992        -0.363793        -2.307677
