19
Iteration:  1674
 C         0.113679         0.522125         0.124143
 C         1.622138         0.145052         0.118440
 C         2.215715        -0.563826         1.340385
 C         3.601859        -1.252189         0.975466
 C         4.163607        -0.455242        -0.212779
 O         3.919599         1.043670         0.205803
 C         2.735829         1.023935        -0.486921
 C         3.045598        -0.217181        -1.293095
 O         1.814388        -0.909446        -0.916727
 H        -0.160980         1.505404         0.609712
 H        -0.226754         0.599872        -0.854177
 H        -0.326284        -0.319260         0.762889
 H         2.376798         0.366728         2.042717
 H         1.610888        -1.290655         1.910811
 H         4.425905        -0.915146         1.640574
 H         3.574061        -2.277179         0.653984
 H         5.142453        -0.659117        -0.656539
 H         2.395226         1.923777        -0.851616
 H         3.478229        -0.288394        -2.338134
