19
Iteration:  3388
 C         0.248050         0.612748         0.228786
 C         1.611392         0.081389         0.081909
 C         2.248020        -0.560289         1.322836
 C         3.715493        -1.217804         0.997524
 C         4.133929        -0.375441        -0.142251
 O         3.890307         1.003992         0.291085
 C         2.689510         0.991997        -0.518234
 C         3.008220        -0.262813        -1.371243
 O         1.725958        -0.879019        -1.078780
 H         0.022907         1.200603         1.165916
 H        -0.248556         0.869066        -0.685471
 H        -0.377829        -0.235988         0.463813
 H         2.282010         0.159671         2.104398
 H         1.583991        -1.419350         1.675082
 H         4.434988        -1.165714         1.836261
 H         3.622294        -2.222295         0.553373
 H         5.255283        -0.611479        -0.338093
 H         2.299167         1.959973        -0.645109
 H         3.422776        -0.541332        -2.392797
