19
Iteration:  1909
 C         0.195891         0.613100         0.178632
 C         1.565775         0.052402         0.213915
 C         2.198962        -0.706314         1.378101
 C         3.650528        -1.210676         1.033938
 C         4.198172        -0.366830        -0.176615
 O         3.943027         1.074388         0.089665
 C         2.727528         1.041338        -0.508335
 C         3.079569        -0.275330        -1.283756
 O         1.716161        -0.868879        -1.007367
 H         0.029156         1.269158         1.022912
 H         0.069767         1.155771        -0.862848
 H        -0.502542        -0.248317         0.230439
 H         2.169930        -0.282486         2.390330
 H         1.472648        -1.642713         1.430010
 H         4.395142        -0.998081         1.788691
 H         3.652613        -2.239894         0.603234
 H         5.345786        -0.424886        -0.387625
 H         2.201418         1.973980        -0.855990
 H         3.236830        -0.392845        -2.376907
