19
Iteration:  2997
 C         0.151694         0.551267         0.162530
 C         1.632452         0.144416         0.196324
 C         2.230070        -0.605558         1.417828
 C         3.645115        -1.175389         0.979243
 C         4.159948        -0.417080        -0.302144
 O         3.947367         0.954044         0.300833
 C         2.721785         1.053187        -0.512011
 C         2.963045        -0.186093        -1.427563
 O         1.814792        -0.941634        -0.993678
 H        -0.208193         1.166735         1.019733
 H        -0.130346         1.167251        -0.679197
 H        -0.536218        -0.256148         0.050014
 H         2.377481         0.146040         2.211295
 H         1.537548        -1.421826         1.730805
 H         4.303496        -0.907632         1.845794
 H         3.654087        -2.295843         0.826729
 H         5.206361        -0.686417        -0.623406
 H         2.411312         2.149072        -0.623947
 H         3.159101        -0.412924        -2.511732
