19
Iteration:  1121charge 0 multiplicity 1
 C         0.180302         0.570788         0.232567
 C         1.629732         0.107300         0.074799
 C         2.248006        -0.618852         1.371259
 C         3.707634        -1.222796         1.021508
 C         4.152857        -0.408153        -0.137499
 O         3.886072         1.040291         0.207440
 C         2.696803         1.014293        -0.592566
 C         3.050625        -0.268468        -1.308272
 O         1.729893        -0.888968        -1.038419
 H         0.312504         1.494118         0.924192
 H        -0.346711         0.838371        -0.679481
 H        -0.524004        -0.183861         0.700349
 H         2.229701         0.309701         1.965924
 H         1.452773        -1.365856         1.687595
 H         4.242832        -0.964160         1.898735
 H         3.843563        -2.356397         1.087816
 H         5.187582        -0.519023        -0.517535
 H         2.403048         1.937171        -1.003354
 H         3.365305        -0.475114        -2.384160
