19
Iteration:  4322charge 0 multiplicity 1
 C         0.148278         0.709563         0.195444
 C         1.543189         0.050179         0.104329
 C         2.286148        -0.655288         1.388967
 C         3.704334        -1.200904         1.015732
 C         4.118399        -0.383020        -0.232343
 O         3.911559         0.987204         0.306605
 C         2.696737         0.984561        -0.553546
 C         2.999366        -0.199021        -1.347886
 O         1.820465        -0.976351        -1.063767
 H         0.160482         1.696254         0.797932
 H        -0.073153         1.050706        -0.820522
 H        -0.594352         0.125820         0.788148
 H         2.281095         0.092566         2.245192
 H         1.696543        -1.506529         1.652278
 H         4.284830        -0.938222         1.944197
 H         3.584478        -2.244161         0.949748
 H         5.187786        -0.538452        -0.512054
 H         2.508347         1.989653        -1.032896
 H         3.308172        -0.355385        -2.418144
