19
Iteration:  4452
 C         0.227997         0.659656         0.207814
 C         1.587727        -0.069483         0.098377
 C         2.217690        -0.680036         1.406351
 C         3.594023        -1.217839         1.000081
 C         4.139297        -0.314813        -0.152420
 O         4.033835         1.171370         0.143793
 C         2.680266         0.986483        -0.530617
 C         3.011035        -0.258413        -1.269208
 O         1.766381        -0.954193        -1.047819
 H         0.360872         1.421590         1.042649
 H        -0.071954         1.157113        -0.739714
 H        -0.567077        -0.094270         0.436306
 H         2.173435         0.182406         2.203223
 H         1.583308        -1.470833         1.845242
 H         4.151383        -1.483615         2.013992
 H         3.359168        -2.196320         0.548108
 H         5.187447        -0.593808        -0.471704
 H         2.163413         1.915370        -0.864914
 H         3.379564        -0.351070        -2.348326
