19
Iteration:  3679
 C         0.155725         0.485591         0.305093
 C         1.604677         0.064355         0.110114
 C         2.267381        -0.538170         1.363690
 C         3.587939        -1.219116         0.967725
 C         4.128308        -0.464463        -0.183874
 O         3.964209         0.961533         0.220063
 C         2.714345         1.015904        -0.511463
 C         3.037100        -0.128697        -1.345286
 O         1.790470        -0.862132        -1.083985
 H         0.002886         1.059631         1.246131
 H        -0.043975         1.370239        -0.355020
 H        -0.707493        -0.306417         0.213435
 H         2.183959         0.299360         2.089212
 H         1.547828        -1.306260         1.570874
 H         4.292481        -1.087247         1.806361
 H         3.519096        -2.312749         0.840956
 H         5.137880        -0.678846        -0.478905
 H         2.579214         2.083471        -0.886369
 H         3.484355        -0.074084        -2.370410
