19
Iteration:   820
 C         0.215165         0.633997         0.270361
 C         1.624092         0.056006         0.170648
 C         2.122354        -0.749521         1.366300
 C         3.598758        -1.233122         0.964111
 C         4.115221        -0.368821        -0.112769
 O         3.996075         1.225664         0.031825
 C         2.734967         1.002830        -0.576719
 C         3.040119        -0.264722        -1.258615
 O         1.796534        -0.963092        -0.990395
 H         0.017503         1.113679         1.239252
 H        -0.160636         1.375322        -0.559312
 H        -0.435759        -0.288015         0.206975
 H         2.138513        -0.084830         2.300806
 H         1.427248        -1.605698         1.539898
 H         4.223305        -1.259062         1.977581
 H         3.597268        -2.302804         0.576569
 H         5.175518        -0.467903        -0.254605
 H         2.461484         2.019366        -1.017080
 H         3.483545        -0.389599        -2.229414
