19
Iteration:  3295
 C         0.186614         0.564402         0.332893
 C         1.579595         0.130384         0.129091
 C         2.192613        -0.501735         1.321442
 C         3.608836        -1.222369         0.899217
 C         4.229302        -0.413801        -0.141741
 O         3.901782         0.941823         0.313055
 C         2.666549         1.013865        -0.578717
 C         3.029812        -0.252366        -1.385260
 O         1.862288        -0.911454        -1.110053
 H         0.233466         1.146364         1.199566
 H        -0.269804         1.028999        -0.536279
 H        -0.477683        -0.255302         0.630227
 H         2.296044         0.276147         2.186712
 H         1.637614        -1.321677         1.733072
 H         4.195665        -1.016312         1.788438
 H         3.360891        -2.300099         0.804264
 H         5.211006        -0.397720        -0.455530
 H         2.310698         2.117286        -0.811269
 H         3.374934        -0.361915        -2.387183
