19
Iteration:  4665
 C         0.159826         0.539332         0.265564
 C         1.630722         0.045773         0.145309
 C         2.158820        -0.652904         1.352702
 C         3.596464        -1.269794         1.011186
 C         4.202348        -0.316820        -0.102512
 O         4.036287         1.145373         0.096260
 C         2.737910         0.946419        -0.591965
 C         3.032958        -0.283989        -1.268048
 O         1.744565        -0.801054        -0.975457
 H        -0.052146         1.573229         0.541244
 H        -0.303291         0.571526        -0.757627
 H        -0.407569        -0.207886         0.927680
 H         2.060747        -0.020559         2.177442
 H         1.507556        -1.581078         1.460762
 H         4.228537        -1.547499         1.854330
 H         3.333090        -2.116346         0.272349
 H         5.197275        -0.561429        -0.432519
 H         2.495648         1.989358        -0.994430
 H         3.240054        -0.468659        -2.396445
