19
Iteration:  4304charge 0 multiplicity 1
 C         0.265356         0.594344         0.208286
 C         1.665697         0.012225         0.170561
 C         2.123821        -0.699693         1.377206
 C         3.582135        -1.182032         0.994224
 C         4.128702        -0.362273        -0.123133
 O         3.967150         1.095501         0.107327
 C         2.698557         0.981532        -0.496795
 C         3.082404        -0.287656        -1.301823
 O         1.744670        -0.846194        -1.052196
 H         0.279066         1.580706         0.680492
 H        -0.035633         0.819848        -0.834728
 H        -0.420413        -0.025966         0.765118
 H         2.232254        -0.003534         2.176154
 H         1.447944        -1.511899         1.758959
 H         4.276072        -1.071332         1.792234
 H         3.586873        -2.244910         0.566343
 H         5.140125        -0.600543        -0.395452
 H         2.222290         1.960492        -0.657010
 H         3.337900        -0.341137        -2.351001
