19
Iteration:  4182
 C         0.162273         0.530639         0.235766
 C         1.587037         0.203344         0.121588
 C         2.150748        -0.673012         1.276283
 C         3.539150        -1.255804         0.964899
 C         4.162923        -0.356880        -0.197453
 O         4.036447         1.105556         0.188216
 C         2.743627         1.097854        -0.598359
 C         2.949648        -0.342338        -1.287976
 O         1.859061        -0.946008        -0.905452
 H         0.130688         1.154316         1.208683
 H        -0.120926         1.073242        -0.673673
 H        -0.455424        -0.337019         0.535454
 H         2.368646        -0.026384         2.207904
 H         1.395758        -1.413836         1.556840
 H         4.313497        -1.046147         1.754016
 H         3.537901        -2.359284         0.635484
 H         5.208299        -0.625600        -0.448447
 H         2.308049         2.194926        -0.778714
 H         3.458351        -0.383625        -2.370732
