19
Iteration:   846
 C         0.226529         0.647817         0.226964
 C         1.612732         0.010237         0.113619
 C         2.157132        -0.697946         1.320417
 C         3.674352        -1.021856         1.050012
 C         4.135832        -0.406626        -0.238857
 O         3.938490         0.974427         0.149494
 C         2.679688         0.944043        -0.504040
 C         2.957053        -0.215297        -1.365170
 O         1.845440        -0.912405        -0.954652
 H         0.147447         0.896015         1.318902
 H         0.090078         1.639082        -0.352016
 H        -0.665321        -0.020509        -0.058407
 H         1.997025        -0.259224         2.315020
 H         1.577472        -1.625501         1.327483
 H         4.110643        -0.506647         1.896554
 H         3.878816        -2.193006         1.101044
 H         5.223767        -0.489986        -0.406598
 H         2.524245         1.983086        -0.722714
 H         3.269252        -0.318739        -2.447788
