19
Iteration:  1558
 C         0.152741         0.431986         0.126606
 C         1.614338         0.093667         0.168841
 C         2.189930        -0.611070         1.513946
 C         3.530199        -1.255076         1.031669
 C         4.176926        -0.338290        -0.101445
 O         4.073649         1.119451         0.006650
 C         2.750874         1.010049        -0.522926
 C         2.986286        -0.215786        -1.290962
 O         1.791641        -0.890181        -1.035295
 H         0.006060         1.188588         0.939530
 H        -0.060499         1.039797        -0.758117
 H        -0.504888        -0.390298         0.280579
 H         2.281329         0.162098         2.229447
 H         1.431339        -1.266358         1.917303
 H         4.205485        -1.442414         1.846263
 H         3.109526        -2.141322         0.608716
 H         5.184253        -0.705168        -0.268661
 H         2.408161         2.096449        -0.789096
 H         3.301978        -0.365046        -2.333320
