19
Iteration:  4872charge 0 multiplicity 1
 C         0.210159         0.493829         0.273052
 C         1.634856         0.045479         0.149120
 C         2.190283        -0.603989         1.325046
 C         3.614593        -1.207148         0.981895
 C         4.120572        -0.447731        -0.153098
 O         3.952220         1.109332         0.158106
 C         2.741776         1.012069        -0.541951
 C         2.994954        -0.201734        -1.303348
 O         1.793153        -0.868024        -0.999506
 H         0.220921         1.543621         0.429976
 H        -0.255753         0.272039        -0.682640
 H        -0.424482        -0.106401         0.905006
 H         2.358727         0.123752         2.104172
 H         1.434351        -1.435471         1.614600
 H         4.182986        -1.144202         1.890412
 H         3.501646        -2.230112         0.507605
 H         5.152377        -0.669396        -0.514373
 H         2.389078         2.094179        -0.866955
 H         3.444480        -0.168378        -2.363581
