19
Iteration:  3563
 C         0.191795         0.567193         0.284685
 C         1.611950        -0.009793         0.099635
 C         2.271109        -0.667815         1.312938
 C         3.668719        -1.207320         1.084774
 C         4.134181        -0.403374        -0.141653
 O         3.973249         1.044997         0.252723
 C         2.687434         1.034325        -0.512272
 C         3.000422        -0.217718        -1.371472
 O         1.721852        -0.833498        -1.143717
 H         0.198260         1.412816         1.018519
 H        -0.093638         1.141892        -0.602051
 H        -0.558857        -0.134603         0.517026
 H         2.384173         0.101288         2.068841
 H         1.568966        -1.471563         1.737084
 H         4.410884        -1.151248         1.909472
 H         3.435016        -2.278898         0.837899
 H         5.151545        -0.618390        -0.636108
 H         2.309155         1.990790        -0.936334
 H         3.300698        -0.295560        -2.411773
