19
Iteration:  3773charge 0 multiplicity 1
 C         0.199543         0.530461         0.273814
 C         1.646863         0.062155         0.062672
 C         2.241039        -0.535103         1.345732
 C         3.689019        -1.292601         1.042502
 C         4.083653        -0.394993        -0.092074
 O         3.957751         1.014452         0.214028
 C         2.700387         0.986606        -0.472966
 C         3.037113        -0.219958        -1.329907
 O         1.714493        -0.791666        -1.186522
 H         0.176083         1.469642         0.824469
 H        -0.395612         0.661386        -0.672691
 H        -0.338789        -0.175486         0.873359
 H         2.500006         0.119302         2.264315
 H         1.355613        -1.194923         1.665632
 H         4.332591        -1.504306         1.998669
 H         3.571153        -2.381026         0.697684
 H         5.178053        -0.527225        -0.517824
 H         2.329502         1.940862        -0.821707
 H         3.379037        -0.380245        -2.387132
