19
Iteration:  3302charge 0 multiplicity 1
 C         0.120997         0.547005         0.316823
 C         1.611501         0.140735         0.103306
 C         2.247035        -0.515392         1.346486
 C         3.589689        -1.239588         0.963623
 C         4.213542        -0.385025        -0.173269
 O         3.875252         0.959133         0.257326
 C         2.698419         1.021090        -0.554189
 C         3.044866        -0.232496        -1.368693
 O         1.841307        -0.900990        -1.072833
 H         0.290621         1.257735         1.258243
 H        -0.284112         1.092736        -0.604257
 H        -0.408327        -0.388208         0.471367
 H         2.418653         0.091769         2.209847
 H         1.533672        -1.379488         1.553702
 H         4.169173        -1.255556         1.922088
 H         3.268920        -2.280491         0.700063
 H         5.303473        -0.526012        -0.556394
 H         2.447850         2.040049        -0.775191
 H         3.497085        -0.391488        -2.414792
