19
Iteration:  4132charge 0 multiplicity 1
 C         0.173050         0.620488         0.301071
 C         1.513684        -0.063142         0.032112
 C         2.239266        -0.632632         1.355626
 C         3.651823        -1.269701         1.077765
 C         4.122721        -0.381449        -0.229834
 O         3.976994         1.110428         0.222011
 C         2.771178         1.060466        -0.473559
 C         3.026456        -0.238492        -1.325274
 O         1.755517        -0.912759        -1.124747
 H         0.277386         1.563037         0.801058
 H        -0.239949         0.610955        -0.752757
 H        -0.559715         0.030513         0.914687
 H         2.406971         0.255562         1.899435
 H         1.463668        -1.241334         1.932343
 H         4.279867        -1.056982         1.939683
 H         3.709493        -2.343676         0.864961
 H         5.156771        -0.626525        -0.493076
 H         2.488286         1.976737        -0.877928
 H         3.333124        -0.252692        -2.316241
