19
Iteration:  3318charge 0 multiplicity 1
 C         0.187313         0.516219         0.246353
 C         1.626358         0.065206         0.105948
 C         2.200193        -0.652817         1.363912
 C         3.575717        -1.297356         0.941916
 C         4.072495        -0.401294        -0.118115
 O         4.017725         1.108875         0.175325
 C         2.725164         1.057685        -0.568639
 C         3.078313        -0.222084        -1.291688
 O         1.772581        -0.838286        -0.974036
 H        -0.012333         1.029668         1.113744
 H        -0.142097         0.958679        -0.670504
 H        -0.497912        -0.367287         0.293243
 H         2.362945         0.266698         2.049343
 H         1.548515        -1.346364         1.855714
 H         4.355108        -1.338784         1.714047
 H         3.387316        -2.271682         0.442811
 H         5.064997        -0.583518        -0.391083
 H         2.384382         2.007919        -1.142958
 H         3.336345        -0.239999        -2.309658
