19
Iteration:  1722charge 0 multiplicity 1
 C         0.185751         0.508085         0.324858
 C         1.604323         0.069217         0.114096
 C         2.175329        -0.558686         1.315959
 C         3.482115        -1.250261         1.051574
 C         4.158973        -0.352609        -0.178297
 O         4.027453         1.092680         0.136278
 C         2.623714         0.962734        -0.566900
 C         3.100894        -0.215802        -1.313534
 O         1.865060        -0.920483        -1.030764
 H         0.225766         1.311619         1.040918
 H        -0.242215         0.955861        -0.637818
 H        -0.386562        -0.278974         0.710016
 H         2.299239         0.222843         2.034538
 H         1.376088        -1.253221         1.709518
 H         4.237131        -1.117999         1.786936
 H         3.319184        -2.260698         0.737033
 H         5.182814        -0.675168        -0.367025
 H         2.414470         2.002638        -0.990751
 H         3.341119        -0.387048        -2.359551
