19
Iteration:   339charge 0 multiplicity 1
 C         0.070579         0.550372         0.261585
 C         1.651739         0.167367         0.068272
 C         2.153933        -0.535659         1.363366
 C         3.538310        -1.241351         0.964983
 C         4.148692        -0.374592        -0.092714
 O         3.968951         1.100066         0.076908
 C         2.714958         1.025360        -0.573759
 C         3.150244        -0.319108        -1.310219
 O         1.854879        -0.955494        -0.904079
 H         0.129317         1.210050         1.096741
 H        -0.270421         0.996892        -0.714912
 H        -0.451777        -0.416695         0.473115
 H         2.195772         0.084680         2.305185
 H         1.450636        -1.338226         1.531075
 H         4.183941        -1.491935         1.808412
 H         3.350577        -2.253388         0.425602
 H         5.170296        -0.597086        -0.248545
 H         2.387635         1.948852        -1.029102
 H         3.551207        -0.492112        -2.262900
