19
Iteration:  2700charge 0 multiplicity 1
 C         0.174755         0.509123         0.374197
 C         1.611627         0.104468         0.100913
 C         2.178455        -0.554478         1.278439
 C         3.581107        -1.188034         0.949441
 C         4.201325        -0.389105        -0.153540
 O         3.899647         1.033378         0.225287
 C         2.696620         1.022848        -0.572487
 C         3.081060        -0.215556        -1.358903
 O         1.831550        -0.948924        -1.011431
 H         0.328473         1.401585         1.101635
 H        -0.322295         1.066833        -0.572757
 H        -0.527816        -0.256902         0.702178
 H         2.205318         0.065619         2.112114
 H         1.445774        -1.315161         1.674757
 H         4.264123        -1.455899         1.739764
 H         3.421041        -2.166744         0.505138
 H         5.302813        -0.650837        -0.397227
 H         2.533768         2.029999        -0.958420
 H         3.366539        -0.314305        -2.417624
