19
Iteration:  2843
 C         0.206311         0.556308         0.248414
 C         1.599845         0.061871         0.119810
 C         2.223824        -0.628664         1.378866
 C         3.575592        -1.191058         0.940946
 C         4.142696        -0.369972        -0.239424
 O         3.891119         0.996019         0.181270
 C         2.706302         1.052849        -0.503498
 C         3.081866        -0.228371        -1.291895
 O         1.828348        -0.875613        -0.985618
 H        -0.076103         1.194472         1.050511
 H        -0.122809         1.189476        -0.598580
 H        -0.420630        -0.307297         0.145748
 H         2.280655         0.027473         2.198433
 H         1.480680        -1.356019         1.767959
 H         4.286741        -1.213678         1.775320
 H         3.520822        -2.263289         0.757125
 H         5.250614        -0.603512        -0.567903
 H         2.489918         2.086257        -0.835391
 H         3.377182        -0.487786        -2.333663
