19
Iteration:  2072
 C         0.214448         0.530382         0.331575
 C         1.563155        -0.004311         0.014854
 C         2.271716        -0.619553         1.398828
 C         3.735618        -1.175230         1.102315
 C         4.069144        -0.354821        -0.107769
 O         3.945563         1.039323         0.173376
 C         2.710110         0.993847        -0.562814
 C         3.031567        -0.272416        -1.300185
 O         1.692600        -0.810994        -1.180929
 H         0.246407         1.258206         1.136438
 H        -0.154654         1.001322        -0.706158
 H        -0.611281        -0.177964         0.511192
 H         2.378800         0.071582         2.234123
 H         1.618097        -1.505732         1.731182
 H         4.452361        -0.849308         1.927110
 H         3.844467        -2.317276         0.978610
 H         5.147737        -0.486881        -0.471856
 H         2.225328         1.781158        -1.093882
 H         3.503510        -0.374328        -2.325918
