19
Iteration:  4884charge 0 multiplicity 1
 C         0.194875         0.518744         0.216779
 C         1.623466         0.040859         0.098866
 C         2.297834        -0.658573         1.370543
 C         3.644189        -1.230880         1.063217
 C         4.094715        -0.325597        -0.162931
 O         3.961823         1.020710         0.199320
 C         2.682989         1.061645        -0.511622
 C         3.038711        -0.258046        -1.345245
 O         1.715389        -0.809864        -1.083169
 H         0.034387         1.538721         0.481375
 H        -0.248894         0.356449        -0.732978
 H        -0.310250         0.018346         1.036672
 H         2.340982         0.164167         2.086501
 H         1.652746        -1.431373         1.925484
 H         4.439933        -1.170567         1.840710
 H         3.619537        -2.376809         0.915500
 H         5.154469        -0.501574        -0.467697
 H         2.295098         2.098319        -0.959050
 H         3.279062        -0.616213        -2.415269
