19
Iteration:  3485charge 0 multiplicity 1
 C         0.198105         0.539363         0.150742
 C         1.632887        -0.046234         0.131613
 C         2.295770        -0.534392         1.433066
 C         3.719921        -1.247144         0.959806
 C         4.141506        -0.433585        -0.141369
 O         3.921765         1.018132         0.213507
 C         2.705734         1.009795        -0.443868
 C         2.999803        -0.144627        -1.315959
 O         1.671810        -0.849802        -1.053642
 H        -0.270484         1.307809         0.896622
 H         0.118071         1.058569        -0.843913
 H        -0.616092        -0.212022        -0.016077
 H         2.477919         0.357209         2.080161
 H         1.591024        -1.323292         1.914972
 H         4.536394        -1.259532         1.754684
 H         3.411917        -2.294811         0.584094
 H         5.182171        -0.712141        -0.619226
 H         2.309934         2.046796        -0.902173
 H         3.450284        -0.154959        -2.361120
