19
Iteration:  3023charge 0 multiplicity 1
 C         0.201834         0.472264         0.230878
 C         1.590904         0.062001         0.121768
 C         2.229376        -0.569140         1.369601
 C         3.626243        -1.245982         0.990860
 C         4.151997        -0.453230        -0.200333
 O         3.976001         1.051328         0.186092
 C         2.689300         1.000766        -0.493527
 C         3.038119        -0.193804        -1.239126
 O         1.752193        -0.827241        -1.070338
 H         0.255579         1.254010         0.952817
 H        -0.301285         1.103996        -0.571386
 H        -0.621220        -0.306365         0.203044
 H         2.484784         0.328792         1.995648
 H         1.540358        -1.240833         1.825330
 H         4.236510        -1.108726         1.856167
 H         3.579749        -2.271847         0.654770
 H         5.127366        -0.735037        -0.591597
 H         2.324245         1.982870        -0.942496
 H         3.405691        -0.240575        -2.266677
