19
Iteration:  2389
 C         0.161892         0.563443         0.229880
 C         1.637127         0.084117         0.256262
 C         2.168022        -0.743465         1.356181
 C         3.542269        -1.235968         0.911124
 C         4.151478        -0.276540        -0.226325
 O         3.993867         1.114454         0.112698
 C         2.766033         1.063338        -0.490640
 C         2.988273        -0.226017        -1.315569
 O         1.846809        -0.989840        -0.941499
 H         0.006258         1.457107         0.801941
 H        -0.082008         0.948692        -0.789777
 H        -0.560114        -0.270413         0.526286
 H         2.159851        -0.266067         2.285781
 H         1.408239        -1.533052         1.396451
 H         4.161285        -1.164487         1.781416
 H         3.600860        -2.130103         0.453309
 H         5.242384        -0.518836        -0.348665
 H         2.441460         2.102203        -0.748231
 H         3.210793        -0.139078        -2.417469
