19
Iteration:  3542charge 0 multiplicity 1
 C         0.175913         0.510859         0.344516
 C         1.653241         0.103546         0.092785
 C         2.163407        -0.662859         1.334677
 C         3.562311        -1.270981         0.927242
 C         4.171865        -0.345219        -0.120676
 O         3.958633         1.097303         0.126702
 C         2.734424         1.027676        -0.531074
 C         3.090284        -0.299396        -1.257146
 O         1.739226        -0.789636        -1.064829
 H         0.021670         1.099738         1.332765
 H        -0.284955         1.104470        -0.495756
 H        -0.259202        -0.457192         0.387454
 H         2.255060        -0.008320         2.175065
 H         1.452466        -1.496566         1.647194
 H         4.221812        -1.245892         1.809701
 H         3.541053        -2.335088         0.586302
 H         5.317173        -0.507193        -0.193157
 H         2.536555         1.896295        -1.142258
 H         3.429585        -0.500448        -2.257984
