19
Iteration:  4521
 C         0.164167         0.540025         0.253600
 C         1.608869         0.006405         0.107579
 C         2.244181        -0.572646         1.405372
 C         3.614282        -1.162901         1.084083
 C         4.221020        -0.378914        -0.189152
 O         3.982873         0.988943         0.219438
 C         2.679186         0.903482        -0.476345
 C         3.044600        -0.272883        -1.381423
 O         1.704013        -0.784120        -1.151229
 H         0.095356         1.520284         0.811676
 H        -0.232393         0.775901        -0.826445
 H        -0.484729        -0.248108         0.648049
 H         2.461943         0.351146         1.944484
 H         1.556247        -1.088400         2.107949
 H         4.329643        -0.944304         1.873435
 H         3.581482        -2.270525         0.877320
 H         5.122759        -0.696259        -0.563601
 H         2.316168         1.832947        -0.923194
 H         3.362705        -0.037804        -2.360453
