19
Iteration:  4290charge 0 multiplicity 1
 C         0.272160         0.537374         0.229807
 C         1.602018         0.036585         0.098738
 C         2.165421        -0.685705         1.341527
 C         3.494537        -1.276700         1.054958
 C         4.162354        -0.353792        -0.131093
 O         4.063427         1.145849         0.029288
 C         2.712469         1.063011        -0.497912
 C         2.974231        -0.198986        -1.241676
 O         1.795674        -0.872191        -0.986458
 H         0.375283         1.448599         0.929000
 H        -0.325161         0.613207        -0.681746
 H        -0.385862        -0.274246         0.615706
 H         2.027619        -0.044529         2.262964
 H         1.488450        -1.508300         1.419271
 H         4.052887        -1.530954         1.982646
 H         3.335278        -2.285003         0.714146
 H         5.186828        -0.606901        -0.465119
 H         2.394818         1.941300        -1.176341
 H         3.526559        -0.356570        -2.211872
