19
Iteration:   892
 C         0.156010         0.451983         0.281655
 C         1.606554         0.092039         0.092302
 C         2.203724        -0.618277         1.403889
 C         3.553114        -1.212696         1.008983
 C         4.188009        -0.390645        -0.131394
 O         3.979777         1.095585         0.087219
 C         2.739441         1.029014        -0.596581
 C         3.087707        -0.244181        -1.286027
 O         1.763617        -0.841781        -1.005846
 H        -0.088554         1.037283         1.267899
 H        -0.233568         1.041601        -0.521899
 H        -0.436692        -0.456052         0.228129
 H         2.394900         0.186948         2.066775
 H         1.452561        -1.255311         1.932113
 H         4.209884        -1.431386         1.855856
 H         3.354915        -2.225391         0.426903
 H         5.289525        -0.562643        -0.290253
 H         2.407558         1.998481        -0.882348
 H         3.359084        -0.448419        -2.334891
