19
Iteration:  2951
 C         0.189138         0.568574         0.277098
 C         1.578080         0.065873         0.175980
 C         2.118442        -0.669130         1.435254
 C         3.558593        -1.287497         0.948046
 C         4.218994        -0.327950        -0.097891
 O         3.984866         1.164223         0.099101
 C         2.770012         0.979288        -0.561114
 C         3.023113        -0.267249        -1.309212
 O         1.805623        -0.905666        -1.097294
 H         0.201652         1.213589         1.302860
 H        -0.227797         1.126218        -0.507284
 H        -0.550200        -0.210554         0.616958
 H         2.278924         0.055638         2.218460
 H         1.272725        -1.458645         1.678846
 H         4.346259        -1.352974         1.835270
 H         3.410376        -2.287876         0.430747
 H         5.330455        -0.403494        -0.315743
 H         2.523493         1.923686        -1.014514
 H         3.307872        -0.255766        -2.370344
