19
Iteration:  2129
 C         0.132490         0.502877         0.192978
 C         1.607542         0.080245         0.156224
 C         2.242106        -0.595563         1.417693
 C         3.618758        -1.292377         0.914509
 C         4.151893        -0.347070        -0.196124
 O         3.947993         1.125226         0.151961
 C         2.767202         1.038055        -0.522331
 C         2.985753        -0.236578        -1.346363
 O         1.816746        -0.915095        -0.896147
 H        -0.285585         1.251436         1.001329
 H         0.003383         1.082480        -0.740275
 H        -0.536516        -0.458138         0.065270
 H         2.683249         0.126833         2.163625
 H         1.579667        -1.307489         2.037468
 H         4.265851        -1.474953         1.776514
 H         3.268272        -2.202186         0.335468
 H         5.210141        -0.562888        -0.470133
 H         2.323787         1.879297        -0.946349
 H         3.201942        -0.260702        -2.381816
