19
Iteration:  2348
 C         0.221836         0.569213         0.283788
 C         1.607668         0.029569         0.133217
 C         2.236130        -0.671785         1.343512
 C         3.640816        -1.151452         0.980970
 C         4.111150        -0.378970        -0.187791
 O         3.904300         1.035229         0.274528
 C         2.691690         1.034726        -0.526108
 C         3.000715        -0.245350        -1.408371
 O         1.800710        -0.895307        -1.106264
 H         0.290272         1.194402         1.204787
 H        -0.010354         1.167087        -0.516791
 H        -0.586279        -0.173828         0.490118
 H         2.527023         0.160236         2.036835
 H         1.640915        -1.414674         2.014645
 H         4.365076        -0.910408         1.814759
 H         3.618825        -2.338607         0.919164
 H         5.220421        -0.436886        -0.373468
 H         2.319896         1.914290        -0.955321
 H         3.225717        -0.406767        -2.435249
