19
Iteration:  3666charge 0 multiplicity 1
 C         0.212430         0.540560         0.345418
 C         1.613087         0.058106         0.037098
 C         2.167574        -0.504076         1.247285
 C         3.556142        -1.220918         0.967203
 C         4.101105        -0.405243        -0.251726
 O         3.992096         0.907088         0.294265
 C         2.667908         1.032345        -0.470591
 C         3.060384        -0.200313        -1.341467
 O         1.848996        -0.844962        -1.055230
 H         0.188475         0.789522         1.413384
 H        -0.319945         1.087700        -0.537011
 H        -0.298536        -0.510773         0.315305
 H         2.590030         0.287556         1.978615
 H         1.562496        -1.108117         1.907082
 H         4.231307        -0.825856         1.743983
 H         3.461172        -2.293254         1.008860
 H         5.143004        -0.644155        -0.583178
 H         2.247107         2.034300        -0.690168
 H         3.211779        -0.191708        -2.456021
