19
Iteration:  3917
 C         0.174809         0.512219         0.305849
 C         1.641017         0.082851         0.144129
 C         2.144564        -0.663652         1.350606
 C         3.492448        -1.258187         0.994978
 C         4.183905        -0.405552        -0.104224
 O         4.095470         1.080233         0.117839
 C         2.688085         1.078855        -0.551269
 C         3.036466        -0.187396        -1.308479
 O         1.780027        -0.868397        -1.079113
 H        -0.022877         1.296806         0.996934
 H        -0.191378         0.710914        -0.671425
 H        -0.368212        -0.419573         0.597519
 H         2.260398         0.199530         2.117964
 H         1.380842        -1.291037         1.790325
 H         4.175844        -1.592939         1.897129
 H         3.476570        -2.253430         0.586675
 H         5.248651        -0.545470        -0.227179
 H         2.404552         2.000943        -1.021566
 H         3.312960        -0.172917        -2.341371
