19
Iteration:  1500charge 0 multiplicity 1
 C         0.231464         0.643718         0.257571
 C         1.602409         0.071050         0.073683
 C         2.233658        -0.573123         1.335945
 C         3.614241        -1.147001         0.997958
 C         4.145479        -0.382370        -0.178394
 O         3.835926         0.985722         0.253853
 C         2.676095         0.939585        -0.560456
 C         3.078952        -0.284169        -1.323411
 O         1.819651        -0.932874        -1.048755
 H         0.229264         1.475394         1.000430
 H        -0.173802         0.743903        -0.712532
 H        -0.413625        -0.182590         0.705726
 H         2.368609         0.263970         2.065650
 H         1.441663        -1.198124         1.784342
 H         4.488433        -0.938654         1.754983
 H         3.467701        -2.196177         0.950187
 H         5.199713        -0.527407        -0.384427
 H         2.400022         2.003687        -0.991049
 H         3.526768        -0.281015        -2.364052
