19
Iteration:  3008
 C         0.109470         0.574549         0.186354
 C         1.605474         0.055599         0.124615
 C         2.309828        -0.546626         1.354068
 C         3.652153        -1.152747         0.990665
 C         4.081906        -0.417239        -0.236571
 O         3.946738         0.899552         0.262933
 C         2.690951         1.041192        -0.471840
 C         3.018485        -0.210393        -1.371067
 O         1.803158        -0.880667        -1.009756
 H        -0.152864         1.132989         1.103299
 H        -0.011210         1.082047        -0.758040
 H        -0.378796        -0.383159         0.251512
 H         2.304327         0.154958         2.212631
 H         1.661258        -1.372655         1.730310
 H         4.521355        -0.993694         1.662401
 H         3.486668        -2.267046         0.918142
 H         5.156696        -0.529211        -0.518762
 H         2.533603         2.140867        -0.764863
 H         3.275352        -0.176326        -2.472733
