19
Iteration:  2850
 C         0.213242         0.514068         0.206775
 C         1.646207         0.096334         0.168825
 C         2.192189        -0.638908         1.374617
 C         3.516502        -1.187183         0.872163
 C         4.079849        -0.412261        -0.221045
 O         3.961561         1.058904         0.186137
 C         2.692731         1.040958        -0.504358
 C         3.043216        -0.270839        -1.303561
 O         1.886869        -0.860963        -0.927261
 H        -0.047652         1.153144         1.098838
 H         0.083618         1.107349        -0.694847
 H        -0.546531        -0.280712         0.305314
 H         2.331244        -0.010959         2.301597
 H         1.464631        -1.517873         1.563095
 H         4.329799        -1.031689         1.696511
 H         3.398652        -2.269946         0.613195
 H         5.127048        -0.447627        -0.461500
 H         2.409519         1.970923        -0.994790
 H         3.286868        -0.317012        -2.358824
