19
Iteration:  1037charge 0 multiplicity 1
 C         0.206666         0.575616         0.223777
 C         1.606222         0.038200         0.103670
 C         2.291823        -0.594800         1.351484
 C         3.701744        -1.233481         1.059382
 C         4.217649        -0.332941        -0.105055
 O         3.911488         1.058694         0.183434
 C         2.660474         0.932762        -0.555341
 C         3.028963        -0.346785        -1.300756
 O         1.672017        -0.822502        -1.093563
 H        -0.112345         1.039658         1.253468
 H        -0.163435         1.267525        -0.607310
 H        -0.470847        -0.299811         0.061739
 H         2.402220         0.270695         2.035291
 H         1.627190        -1.146141         2.033675
 H         4.359929        -0.919715         1.938258
 H         3.457561        -2.281717         0.743907
 H         5.296432        -0.441341        -0.494034
 H         2.211917         1.850400        -1.119286
 H         3.506210        -0.356641        -2.283954
